FoamFile
{
    version     2.0;
    format      ascii;
    class       dictionary;
    object      blockMeshDict;
}

R1 109.0;
R2 275.0;
R3 360.0;

mR1 -109.0;
mR2 -275.0;
mR3 -360.0;

L1 12000.0;
L2 9000.0;
L3 1000.0;
L4 510.0;
L5 490.0;
L6 0.0;

CW1 54.5;
mCW1 -54.5;
C11 77.07463914933369;
mC11 -77.07463914933369;
C21 77.07463914933368;
mC21 -77.07463914933368;

CW2 137.5;
mCW2 -137.5;
C12 194.45436482630058;
mC12 -194.45436482630058;
C22 194.45436482630055;
mC22 -194.45436482630055;

CW3 180.0;
mCW3 -180.0;
C13 254.55844122715712;
mC13 -254.55844122715712;
C23 254.5584412271571;
mC23 -254.5584412271571;

NR1 3;
NR2 9;
NR3 5;

NS1 6;

NVert1 30;
NVert2 207;
NVert3 17;
NVert4 1;
NVert5 17;

vertices
(
     ($mCW1  $mCW1  $L1)// 0
     ( $CW1  $mCW1  $L1)
     ( $CW1   $CW1  $L1)
     ($mCW1   $CW1  $L1)

     ($mCW1  $mCW1  $L2)// 4
     ( $CW1  $mCW1  $L2)
     ( $CW1   $CW1  $L2)
     ($mCW1   $CW1  $L2)

     ($mCW1  $mCW1  $L3)// 8
     ( $CW1  $mCW1  $L3)
     ( $CW1   $CW1  $L3)
     ($mCW1   $CW1  $L3)

     ($mCW1  $mCW1  $L4)// 12
     ( $CW1  $mCW1  $L4)
     ( $CW1   $CW1  $L4)
     ($mCW1   $CW1  $L4)

     ($mCW1  $mCW1  $L5)// 16
     ( $CW1  $mCW1  $L5)
     ( $CW1   $CW1  $L5)
     ($mCW1   $CW1  $L5)

     ($mCW1  $mCW1  $L6)// 20
     ( $CW1  $mCW1  $L6)
     ( $CW1   $CW1  $L6)
     ($mCW1   $CW1  $L6)

    ($mC11   $mC21   $L1)// 24
    ( $C11   $mC21   $L1)
    ( $C11   $C21    $L1)
    ($mC11   $C21    $L1)

    ($mC11   $mC21   $L2)// 28
    ( $C11   $mC21   $L2)
    ( $C11   $C21    $L2)
    ($mC11   $C21    $L2)

    ($mC11   $mC21   $L3)// 32
    ( $C11   $mC21   $L3)
    ( $C11   $C21    $L3)
    ($mC11   $C21    $L3)

    ($mC11   $mC21   $L4)// 36
    ( $C11   $mC21   $L4)
    ( $C11   $C21    $L4)
    ($mC11   $C21    $L4)

    ($mC11   $mC21   $L5)// 40
    ( $C11   $mC21   $L5)
    ( $C11   $C21    $L5)
    ($mC11   $C21    $L5)

    ($mC11   $mC21   $L6)// 44
    ( $C11   $mC21   $L6)
    ( $C11   $C21    $L6)
    ($mC11   $C21    $L6)

    ($mC12   $mC22   $L1)// 48
    ( $C12   $mC22   $L1)
    ( $C12   $C22    $L1)
    ($mC12   $C22    $L1)

    ($mC12   $mC22   $L2)// 52
    ( $C12   $mC22   $L2)
    ( $C12   $C22    $L2)
    ($mC12   $C22    $L2)

    ($mC12   $mC22   $L3)// 56
    ( $C12   $mC22   $L3)
    ( $C12   $C22    $L3)
    ($mC12   $C22    $L3)

    ($mC12   $mC22   $L4)// 60
    ( $C12   $mC22   $L4)
    ( $C12   $C22    $L4)
    ($mC12   $C22    $L4)

    ($mC12   $mC22   $L5)// 64
    ( $C12   $mC22   $L5)
    ( $C12   $C22    $L5)
    ($mC12   $C22    $L5)

    ($mC12   $mC22   $L6)// 68
    ( $C12   $mC22   $L6)
    ( $C12   $C22    $L6)
    ($mC12   $C22    $L6)

    ($mC13   $mC23   $L1)// 72
    ( $C13   $mC23   $L1)
    ( $C13   $C23    $L1)
    ($mC13   $C23    $L1)

    ($mC13   $mC23   $L2)// 76
    ( $C13   $mC23   $L2)
    ( $C13   $C23    $L2)
    ($mC13   $C23    $L2)

    ($mC13   $mC23   $L3)// 80
    ( $C13   $mC23   $L3)
    ( $C13   $C23    $L3)
    ($mC13   $C23    $L3)

    ($mC13   $mC23   $L4)// 84
    ( $C13   $mC23   $L4)
    ( $C13   $C23    $L4)
    ($mC13   $C23    $L4)

    ($mC13   $mC23   $L5)// 88
    ( $C13   $mC23   $L5)
    ( $C13   $C23    $L5)
    ($mC13   $C23    $L5)

    ($mC13   $mC23   $L6)// 92
    ( $C13   $mC23   $L6)
    ( $C13   $C23    $L6)
    ($mC13   $C23    $L6)

);

blocks
(
     hex (4 5 6 7 0 1 2 3) ($NS1 $NS1 $NVert1) simpleGrading (1 1 5.08961991682329)
     hex (8 9 10 11 4 5 6 7) ($NS1 $NS1 $NVert2) simpleGrading (1 1 1.0042415811947785)
     hex (12 13 14 15 8 9 10 11) ($NS1 $NS1 $NVert3) simpleGrading (1 1 1.928260841325211)
//     hex (16 17 18 19 12 13 14 15) ($NS1 $NS1 $NVert4) simpleGrading (1 1 1.0)
//     hex (20 21 22 23 16 17 18 19) ($NS1 $NS1 $NVert5) simpleGrading (1 1 0.5186020369073838)

     hex (4 28 29 5 0 24 25 1) ($NR1 $NS1  $NVert1) simpleGrading (1.0 1 5.08961991682329)
     hex (5 29 30 6 1 25 26 2) ($NR1 $NS1  $NVert1) simpleGrading (1.0 1 5.08961991682329)
     hex (6 30 31 7 2 26 27 3) ($NR1 $NS1  $NVert1) simpleGrading (1.0 1 5.08961991682329)
     hex (7 31 28 4 3 27 24 0) ($NR1 $NS1  $NVert1) simpleGrading (1.0 1 5.08961991682329)

     hex (8 32 33 9 4 28 29 5) ($NR1 $NS1  $NVert2) simpleGrading (1.0 1 1.0042415811947785)
     hex (9 33 34 10 5 29 30 6) ($NR1 $NS1  $NVert2) simpleGrading (1.0 1 1.0042415811947785)
     hex (10 34 35 11 6 30 31 7) ($NR1 $NS1  $NVert2) simpleGrading (1.0 1 1.0042415811947785)
     hex (11 35 32 8 7 31 28 4) ($NR1 $NS1  $NVert2) simpleGrading (1.0 1 1.0042415811947785)

     hex (12 36 37 13 8 32 33 9) ($NR1 $NS1  $NVert3) simpleGrading (1.0 1 1.928260841325211)
     hex (13 37 38 14 9 33 34 10) ($NR1 $NS1  $NVert3) simpleGrading (1.0 1 1.928260841325211)
     hex (14 38 39 15 10 34 35 11) ($NR1 $NS1  $NVert3) simpleGrading (1.0 1 1.928260841325211)
     hex (15 39 36 12 11 35 32 8) ($NR1 $NS1  $NVert3) simpleGrading (1.0 1 1.928260841325211)

//     hex (16 40 41 17 12 36 37 13) ($NR1 $NS1  $NVert4) simpleGrading (1.0 1 1.0)
//     hex (17 41 42 18 13 37 38 14) ($NR1 $NS1  $NVert4) simpleGrading (1.0 1 1.0)
//     hex (18 42 43 19 14 38 39 15) ($NR1 $NS1  $NVert4) simpleGrading (1.0 1 1.0)
//     hex (19 43 40 16 15 39 36 12) ($NR1 $NS1  $NVert4) simpleGrading (1.0 1 1.0)

//     hex (20 44 45 21 16 40 41 17) ($NR1 $NS1  $NVert5) simpleGrading (1.0 1 0.5186020369073838)
//     hex (21 45 46 22 17 41 42 18) ($NR1 $NS1  $NVert5) simpleGrading (1.0 1 0.5186020369073838)
//     hex (22 46 47 23 18 42 43 19) ($NR1 $NS1  $NVert5) simpleGrading (1.0 1 0.5186020369073838)
//     hex (23 47 44 20 19 43 40 16) ($NR1 $NS1  $NVert5) simpleGrading (1.0 1 0.5186020369073838)

     hex (28 52 53 29 24 48 49 25) ($NR2 $NS1  $NVert1) simpleGrading (1.0 1 5.08961991682329)
     hex (29 53 54 30 25 49 50 26) ($NR2 $NS1  $NVert1) simpleGrading (1.0 1 5.08961991682329)
     hex (30 54 55 31 26 50 51 27) ($NR2 $NS1  $NVert1) simpleGrading (1.0 1 5.08961991682329)
     hex (31 55 52 28 27 51 48 24) ($NR2 $NS1  $NVert1) simpleGrading (1.0 1 5.08961991682329)

     hex (32 56 57 33 28 52 53 29) ($NR2 $NS1  $NVert2) simpleGrading (1.0 1 1.0042415811947785)
     hex (33 57 58 34 29 53 54 30) ($NR2 $NS1  $NVert2) simpleGrading (1.0 1 1.0042415811947785)
     hex (34 58 59 35 30 54 55 31) ($NR2 $NS1  $NVert2) simpleGrading (1.0 1 1.0042415811947785)
     hex (35 59 56 32 31 55 52 28) ($NR2 $NS1  $NVert2) simpleGrading (1.0 1 1.0042415811947785)

     hex (36 60 61 37 32 56 57 33) ($NR2 $NS1  $NVert3) simpleGrading (1.0 1 1.928260841325211)
     hex (37 61 62 38 33 57 58 34) ($NR2 $NS1  $NVert3) simpleGrading (1.0 1 1.928260841325211)
     hex (38 62 63 39 34 58 59 35) ($NR2 $NS1  $NVert3) simpleGrading (1.0 1 1.928260841325211)
     hex (39 63 60 36 35 59 56 32) ($NR2 $NS1  $NVert3) simpleGrading (1.0 1 1.928260841325211)

//     hex (40 64 65 41 36 60 61 37) ($NR2 $NS1  $NVert4) simpleGrading (1.0 1 1.0)
//     hex (41 65 66 42 37 61 62 38) ($NR2 $NS1  $NVert4) simpleGrading (1.0 1 1.0)
//     hex (42 66 67 43 38 62 63 39) ($NR2 $NS1  $NVert4) simpleGrading (1.0 1 1.0)
//     hex (43 67 64 40 39 63 60 36) ($NR2 $NS1  $NVert4) simpleGrading (1.0 1 1.0)

     hex (44 68 69 45 40 64 65 41) ($NR2 $NS1  $NVert5) simpleGrading (1.0 1 0.5186020369073838)
     hex (45 69 70 46 41 65 66 42) ($NR2 $NS1  $NVert5) simpleGrading (1.0 1 0.5186020369073838)
     hex (46 70 71 47 42 66 67 43) ($NR2 $NS1  $NVert5) simpleGrading (1.0 1 0.5186020369073838)
     hex (47 71 68 44 43 67 64 40) ($NR2 $NS1  $NVert5) simpleGrading (1.0 1 0.5186020369073838)

     hex (52 76 77 53 48 72 73 49) ($NR3 $NS1  $NVert1) simpleGrading (1.0 1 5.08961991682329)
     hex (53 77 78 54 49 73 74 50) ($NR3 $NS1  $NVert1) simpleGrading (1.0 1 5.08961991682329)
     hex (54 78 79 55 50 74 75 51) ($NR3 $NS1  $NVert1) simpleGrading (1.0 1 5.08961991682329)
     hex (55 79 76 52 51 75 72 48) ($NR3 $NS1  $NVert1) simpleGrading (1.0 1 5.08961991682329)

     hex (56 80 81 57 52 76 77 53) ($NR3 $NS1  $NVert2) simpleGrading (1.0 1 1.0042415811947785)
     hex (57 81 82 58 53 77 78 54) ($NR3 $NS1  $NVert2) simpleGrading (1.0 1 1.0042415811947785)
     hex (58 82 83 59 54 78 79 55) ($NR3 $NS1  $NVert2) simpleGrading (1.0 1 1.0042415811947785)
     hex (59 83 80 56 55 79 76 52) ($NR3 $NS1  $NVert2) simpleGrading (1.0 1 1.0042415811947785)

     hex (60 84 85 61 56 80 81 57) ($NR3 $NS1  $NVert3) simpleGrading (1.0 1 1.928260841325211)
     hex (61 85 86 62 57 81 82 58) ($NR3 $NS1  $NVert3) simpleGrading (1.0 1 1.928260841325211)
     hex (62 86 87 63 58 82 83 59) ($NR3 $NS1  $NVert3) simpleGrading (1.0 1 1.928260841325211)
     hex (63 87 84 60 59 83 80 56) ($NR3 $NS1  $NVert3) simpleGrading (1.0 1 1.928260841325211)

     hex (64 88 89 65 60 84 85 61) ($NR3 $NS1  $NVert4) simpleGrading (1.0 1 1.0)
     hex (65 89 90 66 61 85 86 62) ($NR3 $NS1  $NVert4) simpleGrading (1.0 1 1.0)
     hex (66 90 91 67 62 86 87 63) ($NR3 $NS1  $NVert4) simpleGrading (1.0 1 1.0)
     hex (67 91 88 64 63 87 84 60) ($NR3 $NS1  $NVert4) simpleGrading (1.0 1 1.0)

     hex (68 92 93 69 64 88 89 65) ($NR3 $NS1  $NVert5) simpleGrading (1.0 1 0.5186020369073838)
     hex (69 93 94 70 65 89 90 66) ($NR3 $NS1  $NVert5) simpleGrading (1.0 1 0.5186020369073838)
     hex (70 94 95 71 66 90 91 67) ($NR3 $NS1  $NVert5) simpleGrading (1.0 1 0.5186020369073838)
     hex (71 95 92 68 67 91 88 64) ($NR3 $NS1  $NVert5) simpleGrading (1.0 1 0.5186020369073838)

);

edges
(
    arc 24 25 (0    $mR1 $L1)
    arc 25 26 ($R1 0 $L1)
    arc 26 27 (0 $R1 $L1)
    arc 27 24 ($mR1 0 $L1)

    arc 28 29 (0    $mR1 $L2)
    arc 29 30 ($R1 0 $L2)
    arc 30 31 (0 $R1 $L2)
    arc 31 28 ($mR1 0 $L2)

    arc 32 33 (0    $mR1 $L3)
    arc 33 34 ($R1 0 $L3)
    arc 34 35 (0 $R1 $L3)
    arc 35 32 ($mR1 0 $L3)

    arc 36 37 (0    $mR1 $L4)
    arc 37 38 ($R1 0 $L4)
    arc 38 39 (0 $R1 $L4)
    arc 39 36 ($mR1 0 $L4)

    arc 40 41 (0    $mR1 $L5)
    arc 41 42 ($R1 0 $L5)
    arc 42 43 (0 $R1 $L5)
    arc 43 40 ($mR1 0 $L5)

    arc 44 45 (0    $mR1 $L6)
    arc 45 46 ($R1 0 $L6)
    arc 46 47 (0 $R1 $L6)
    arc 47 44 ($mR1 0 $L6)

    arc 48 49 (0    $mR2 $L1)
    arc 49 50 ($R2 0 $L1)
    arc 50 51 (0 $R2 $L1)
    arc 51 48 ($mR2 0 $L1)

    arc 52 53 (0    $mR2 $L2)
    arc 53 54 ($R2 0 $L2)
    arc 54 55 (0 $R2 $L2)
    arc 55 52 ($mR2 0 $L2)

    arc 56 57 (0    $mR2 $L3)
    arc 57 58 ($R2 0 $L3)
    arc 58 59 (0 $R2 $L3)
    arc 59 56 ($mR2 0 $L3)

    arc 60 61 (0    $mR2 $L4)
    arc 61 62 ($R2 0 $L4)
    arc 62 63 (0 $R2 $L4)
    arc 63 60 ($mR2 0 $L4)

    arc 64 65 (0    $mR2 $L5)
    arc 65 66 ($R2 0 $L5)
    arc 66 67 (0 $R2 $L5)
    arc 67 64 ($mR2 0 $L5)

    arc 68 69 (0    $mR2 $L6)
    arc 69 70 ($R2 0 $L6)
    arc 70 71 (0 $R2 $L6)
    arc 71 68 ($mR2 0 $L6)

    arc 72 73 (0    $mR3 $L1)
    arc 73 74 ($R3 0 $L1)
    arc 74 75 (0 $R3 $L1)
    arc 75 72 ($mR3 0 $L1)

    arc 76 77 (0    $mR3 $L2)
    arc 77 78 ($R3 0 $L2)
    arc 78 79 (0 $R3 $L2)
    arc 79 76 ($mR3 0 $L2)

    arc 80 81 (0    $mR3 $L3)
    arc 81 82 ($R3 0 $L3)
    arc 82 83 (0 $R3 $L3)
    arc 83 80 ($mR3 0 $L3)

    arc 84 85 (0    $mR3 $L4)
    arc 85 86 ($R3 0 $L4)
    arc 86 87 (0 $R3 $L4)
    arc 87 84 ($mR3 0 $L4)

    arc 88 89 (0    $mR3 $L5)
    arc 89 90 ($R3 0 $L5)
    arc 90 91 (0 $R3 $L5)
    arc 91 88 ($mR3 0 $L5)

    arc 92 93 (0    $mR3 $L6)
    arc 93 94 ($R3 0 $L6)
    arc 94 95 (0 $R3 $L6)
    arc 95 92 ($mR3 0 $L6)

);

boundary
(
    walls
    {
        type wall;
        faces
        (
            ( 76 77 73 72)
            ( 77 78 74 73)
            ( 78 79 75 74)
            ( 79 76 72 75)

            ( 80 81 77 76)
            ( 81 82 78 77)
            ( 82 83 79 78)
            ( 83 80 76 79)

            ( 84 85 81 80)
            ( 85 86 82 81)
            ( 86 87 83 82)
            ( 87 84 80 83)

            ( 88 89 85 84)
            ( 89 90 86 85)
            ( 90 91 87 86)
            ( 91 88 84 87)

            ( 92 93 89 88)
            ( 93 94 90 89)
            ( 94 95 91 90)
            ( 95 92 88 91)

            ( 44 45 41 40)
            ( 45 46 42 41)
            ( 46 47 43 42)
            ( 47 44 40 43)

            ( 44 68 69 45)
            ( 45 69 46 70)
            ( 46 70 71 47)
            ( 47 71 68 44)

            ( 68 92 93 69)
            ( 69 93 70 94)
            ( 70 94 95 71)
            ( 71 95 92 68)

            ( 40 64 65 41)
            ( 41 65 42 66)
            ( 42 66 67 43)
            ( 43 67 64 40)

            ( 12 13 14 15)

            ( 12 36 37 13)
            ( 13 37 14 38)
            ( 14 38 39 15)
            ( 15 39 36 12)

            ( 36 60 61 37)
            ( 37 61 38 62)
            ( 38 62 63 39)
            ( 39 63 60 36)

        );
    }
    inlet
    {
        type patch;
        faces
        (
            ( 64 65 61 60)
            ( 65 66 62 61)
            ( 66 67 63 62)
            ( 67 64 60 63)

        );
    }
    outlet
    {
        type patch;
        faces
        (
            ( 0 1 2 3)

            ( 0 24 25 1)
            ( 1 25 2 26)
            ( 2 26 27 3)
            ( 3 27 24 0)

            ( 24 48 49 25)
            ( 25 49 26 50)
            ( 26 50 51 27)
            ( 27 51 48 24)

            ( 48 72 73 49)
            ( 49 73 50 74)
            ( 50 74 75 51)
            ( 51 75 72 48)

        );
    }
);

mergePatchPairs
(
);
