/*--------------------------------*- C++ -*----------------------------------*\
  =========                 |
  \\      /  F ield         | OpenFOAM: The Open Source CFD Toolbox
   \\    /   O peration     | Website:  https://openfoam.org
    \\  /    A nd           | Version:  dev
     \\/     M anipulation  |
\*---------------------------------------------------------------------------*/
FoamFile
{
    format      ascii;
    class       dictionary;
    location    "system";
    object      fvSolution;
}
// * * * * * * * * * * * * * * * * * * * * * * * * * * * * * * * * * * * * * //

solvers
{
    "alpha.*"
    {
        nAlphaCorr      2;
        nAlphaSubCycles 2;
    }

    bubbles
    {
        nCorr                1;
        tolerance            1e-4;
        scale                true;
        solveOnFinalIterOnly true;
        sourceUpdateInterval 1;
    }

    p_rgh
    {
        solver          GAMG;
        smoother        DIC;
        tolerance       1e-7;
        relTol          0;
    }

    p_rghFinal
    {
        $p_rgh;
        relTol          0;
    }

    "(k|omega).*"
    {
        solver          smoothSolver;
        smoother        symGaussSeidel;
        tolerance       1e-7;
        relTol          0;
        minIter         1;
    }

    "(e|h).*"
    {
        solver          smoothSolver;
        smoother        symGaussSeidel;
        tolerance       1e-8;
        relTol          0;
        minIter         0;
        maxIter         3;
    }

    "f.*"
    {
        solver          PBiCGStab;
        preconditioner  DILU;
        tolerance       1e-6;
        relTol          0;
    }

    "Yi.*"
    {
        solver          PBiCGStab;
        preconditioner  DILU;
        tolerance       1e-12;
        relTol          0;
        residualAlpha   1e-8;
    }

    "U.*"
    {
        solver          smoothSolver;
        smoother        symGaussSeidel;
        tolerance       1e-5;
        relTol          0;
        minIter         1;
    }

    "yPsi.*"
    {
        solver          PCG;
        preconditioner  DIC;
        tolerance       1e-10;
        relTol          0;
    }

}

PIMPLE
{
    nOuterCorrectors 1;
    nCorrectors      3;
    nNonOrthogonalCorrectors 0;

}

relaxationFactors
{
    equations
    {
        ".*"            0.99;
    }
}


// ************************************************************************* //
