/*--------------------------------*- C++ -*----------------------------------*\
  =========                 |
  \\      /  F ield         | OpenFOAM: The Open Source CFD Toolbox
   \\    /   O peration     | Website:  https://openfoam.org
    \\  /    A nd           | Version:  9
     \\/     M anipulation  |
\*---------------------------------------------------------------------------*/
FoamFile
{
    format      ascii;
    class       volVectorField;
    object      U.gas;
}
// * * * * * * * * * * * * * * * * * * * * * * * * * * * * * * * * * * * * * //

dimensions      [0 1 -1 0 0 0 0];

internalField   uniform (0 0 0);

#include "${FOAM_CASE}/constant/globalVars"

boundaryField
{
    #includeEtc "caseDicts/setConstraintTypes"

    inlet
    {
        type            flowRateInletVelocity;
        volumetricFlowRate  $V_flowRate;
    }

    outlet
    {
        type            pressureInletOutletVelocity;
        phi             phi.gas;
        value           $internalField;
    }

    walls
    {
        type            slip;
    }
    propeller
    {
        type               slip;
    }
}

// ************************************************************************* //
