/*--------------------------------*- C++ -*----------------------------------*\
  =========                 |
  \\      /  F ield         | OpenFOAM: The Open Source CFD Toolbox
   \\    /   O peration     | Website:  https://openfoam.org
    \\  /    A nd           | Version:  9
     \\/     M anipulation  |
\*---------------------------------------------------------------------------*/
FoamFile
{
    format      ascii;
    class       dictionary;
    object      topoSetDict;
}
// * * * * * * * * * * * * * * * * * * * * * * * * * * * * * * * * * * * * * //

actions
(
    // Example:pick up internal faces on outside of cellSet
    // ~~~~~~~~~~~~~~~~~~~~~~~~~~~~~~~~~~~~~~~~~~~~~~~~~~~~

    // Load initial cellSet
    {
        action  new;
        type    faceSet;
        name    inlet;
        source  boxToFace;
        sourceInfo
        {
            box (-0.01 -0.00001 -0.01 )(0.01  0.00001 0.01);
        }
    }
);

 ************************************************************************* //
