/*--------------------------------*- C++ -*----------------------------------*\
  =========                 |
  \\      /  F ield         | OpenFOAM: The Open Source CFD Toolbox
   \\    /   O peration     | Website:  https://openfoam.org
    \\  /    A nd           | Version:  dev
     \\/     M anipulation  |
\*---------------------------------------------------------------------------*/
FoamFile
{
    format      ascii;
    class       volScalarField;
    object      p;
}
// * * * * * * * * * * * * * * * * * * * * * * * * * * * * * * * * * * * * * //

dimensions          [1 -1 -2 0 0 0 0];

internalField       uniform 1e5;

boundaryField
{
    inlet
    {
        type               calculated;
        value              $internalField;
    }
    outlet
    {
        type               calculated;
        value              $internalField;
    }
    propeller
    {
        type            calculated;
        value           uniform 101325;
    }
    walls
    {
        type            calculated;
        value           uniform 101325;
    }
    inside_to_hub
    {
        type            empty;
    }
    inside_to_hub_copy
    {
        type            empty;
    }
    hub_to_rotor
    {
        type            empty;
    }
    hub_to_rotor_copy
    {
        type            empty;
    }
}

// * * * * * * * * * * * * * * * * * * * * * * * * * * * * * * * * * * * * * //
