/*--------------------------------*- C++ -*----------------------------------*\
| =========                 |                                                 |
| \      /  F ield         | OpenFOAM: The Open Source CFD Toolbox           |
|  \    /   O peration     | Version:  5                                     |
|   \  /    A nd           | Web:      www.OpenFOAM.org                      |
|    \/     M anipulation  |                                                 |
\*---------------------------------------------------------------------------*/
FoamFile
{
	version     2.0;
	format      ascii;
	class       dictionary;
	object      blockMeshDict;
}

// * * * * * * * * * * * * * * * * * * * * * * * * * * * * * * * * * * * * * //

convertToMeters 0.025000;

// * * * * * * * * * * * * * * * * * * * * * * * * * * * * * * * * * * * * * //


// * * * * * * * * * * * * * * * * * * * * * * * * * * * * * * * * * * * * * //
vertices
(

//section 0

//center
(0.0 0.0 -0.0004971839307472692) // 0

//polygon
( 0.3125 0.0 -0.0004894154317298671 ) // 1

//circles
( 0.2706329386826371 0.15624999999999997 -0.0004894154317298671 ) // 2

//circles
( 0.15625000000000003 0.27063293868263705 -0.0004894154317298671 ) // 3

//circles
( 1.9135106236677395e-17 0.3125 -0.0004894154317298671 ) // 4

//circles
( -0.15624999999999994 0.2706329386826371 -0.0004894154317298671 ) // 5

//circles
( -0.27063293868263705 0.1562500000000001 -0.0004894154317298671 ) // 6

//circles
( -0.3125 3.827021247335479e-17 -0.0004894154317298671 ) // 7

//circles
( -0.27063293868263716 -0.15624999999999992 -0.0004894154317298671 ) // 8

//circles
( -0.15625000000000014 -0.270632938682637 -0.0004894154317298671 ) // 9

//circles
( -5.740531871003217e-17 -0.3125 -0.0004894154317298671 ) // 10

//circles
( 0.15624999999999978 -0.2706329386826372 -0.0004894154317298671 ) // 11

//circles
( 0.270632938682637 -0.15625000000000014 -0.0004894154317298671 ) // 12

//circles
( 0.825 0.0 -0.0004430406024766853 ) //13
( 0.7144709581221619 0.4124999999999999 -0.0004430406024766853 ) //14
( 0.4125000000000001 0.7144709581221618 -0.0004430406024766853 ) //15
( 5.051668046482832e-17 0.825 -0.0004430406024766853 ) //16
( -0.4124999999999998 0.7144709581221619 -0.0004430406024766853 ) //17
( -0.7144709581221617 0.41250000000000026 -0.0004430406024766853 ) //18
( -0.825 1.0103336092965664e-16 -0.0004430406024766853 ) //19
( -0.714470958122162 -0.41249999999999976 -0.0004430406024766853 ) //20
( -0.41250000000000037 -0.7144709581221617 -0.0004430406024766853 ) //21
( -1.5155004139448494e-16 -0.825 -0.0004430406024766853 ) //22
( 0.4124999999999994 -0.7144709581221622 -0.0004430406024766853 ) //23
( 0.7144709581221617 -0.41250000000000037 -0.0004430406024766853 ) //24
( 0.875 0.0 -0.00043627890136122005 ) //25
( 0.7577722283113839 0.43749999999999994 -0.00043627890136122005 ) //26
( 0.4375000000000001 0.7577722283113838 -0.00043627890136122005 ) //27
( 5.35782974626967e-17 0.875 -0.00043627890136122005 ) //28
( -0.4374999999999998 0.7577722283113839 -0.00043627890136122005 ) //29
( -0.7577722283113837 0.4375000000000003 -0.00043627890136122005 ) //30
( -0.875 1.071565949253934e-16 -0.00043627890136122005 ) //31
( -0.7577722283113839 -0.4374999999999998 -0.00043627890136122005 ) //32
( -0.4375000000000004 -0.7577722283113836 -0.00043627890136122005 ) //33
( -1.607348923880901e-16 -0.875 -0.00043627890136122005 ) //34
( 0.43749999999999944 -0.7577722283113841 -0.00043627890136122005 ) //35
( 0.7577722283113836 -0.4375000000000004 -0.00043627890136122005 ) //36
( 1.375 0.0 -0.0003467857959549292 ) //37
( 1.1907849302036033 0.6874999999999999 -0.0003467857959549292 ) //38
( 0.6875000000000001 1.190784930203603 -0.0003467857959549292 ) //39
( 8.419446744138054e-17 1.375 -0.0003467857959549292 ) //40
( -0.6874999999999997 1.1907849302036033 -0.0003467857959549292 ) //41
( -1.1907849302036029 0.6875000000000004 -0.0003467857959549292 ) //42
( -1.375 1.6838893488276108e-16 -0.0003467857959549292 ) //43
( -1.1907849302036033 -0.6874999999999997 -0.0003467857959549292 ) //44
( -0.6875000000000007 -1.1907849302036029 -0.0003467857959549292 ) //45
( -2.525834023241416e-16 -1.375 -0.0003467857959549292 ) //46
( 0.6874999999999991 -1.1907849302036038 -0.0003467857959549292 ) //47
( 1.1907849302036029 -0.6875000000000007 -0.0003467857959549292 ) //48
( 1.6875 0.0 -0.0002706545074033784 ) //49
( 1.4614178688862403 0.8437499999999999 -0.0002706545074033784 ) //50
( 0.8437500000000002 1.46141786888624 -0.0002706545074033784 ) //51
( 1.0332957367805793e-16 1.6875 -0.0002706545074033784 ) //52
( -0.8437499999999997 1.4614178688862403 -0.0002706545074033784 ) //53
( -1.46141786888624 0.8437500000000006 -0.0002706545074033784 ) //54
( -1.6875 2.0665914735611586e-16 -0.0002706545074033784 ) //55
( -1.4614178688862405 -0.8437499999999996 -0.0002706545074033784 ) //56
( -0.8437500000000008 -1.4614178688862398 -0.0002706545074033784 ) //57
( -3.0998872103417374e-16 -1.6875 -0.0002706545074033784 ) //58
( 0.8437499999999989 -1.461417868886241 -0.0002706545074033784 ) //59
( 1.4614178688862398 -0.8437500000000008 -0.0002706545074033784 ) //60
( 2.0 0.0 -0.00017898621990752872 ) //61
( 1.7320508075688774 0.9999999999999999 -0.00017898621990752872 ) //62
( 1.0000000000000002 1.7320508075688772 -0.00017898621990752872 ) //63
( 1.2246467991473532e-16 2.0 -0.00017898621990752872 ) //64
( -0.9999999999999996 1.7320508075688774 -0.00017898621990752872 ) //65
( -1.732050807568877 1.0000000000000007 -0.00017898621990752872 ) //66
( -2.0 2.4492935982947064e-16 -0.00017898621990752872 ) //67
( -1.7320508075688776 -0.9999999999999994 -0.00017898621990752872 ) //68
( -1.0000000000000009 -1.7320508075688767 -0.00017898621990752872 ) //69
( -3.6739403974420594e-16 -2.0 -0.00017898621990752872 ) //70
( 0.9999999999999987 -1.732050807568878 -0.00017898621990752872 ) //71
( 1.7320508075688767 -1.0000000000000009 -0.00017898621990752872 ) //72
( 2.5 0.0 0.0 ) //73
( 2.165063509461097 1.2499999999999998 0.0 ) //74
( 1.2500000000000002 2.1650635094610964 0.0 ) //75
( 1.5308084989341916e-16 2.5 0.0 ) //76
( -1.2499999999999996 2.165063509461097 0.0 ) //77
( -2.1650635094610964 1.2500000000000009 0.0 ) //78
( -2.5 3.061616997868383e-16 0.0 ) //79
( -2.1650635094610973 -1.2499999999999993 0.0 ) //80
( -1.250000000000001 -2.165063509461096 0.0 ) //81
( -4.592425496802574e-16 -2.5 0.0 ) //82
( 1.2499999999999982 -2.1650635094610977 0.0 ) //83
( 2.165063509461096 -1.250000000000001 0.0 ) //84

//section 1

//center
(0.0 0.0 3.2399999999999998) // 85

//polygon
( 0.3125 0.0 3.2399999999999998 ) // 86
( 0.2706329386826371 0.15624999999999997 3.2399999999999998 ) // 87
( 0.15625000000000003 0.27063293868263705 3.2399999999999998 ) // 88
( 1.9135106236677395e-17 0.3125 3.2399999999999998 ) // 89
( -0.15624999999999994 0.2706329386826371 3.2399999999999998 ) // 90
( -0.27063293868263705 0.1562500000000001 3.2399999999999998 ) // 91
( -0.3125 3.827021247335479e-17 3.2399999999999998 ) // 92
( -0.27063293868263716 -0.15624999999999992 3.2399999999999998 ) // 93
( -0.15625000000000014 -0.270632938682637 3.2399999999999998 ) // 94
( -5.740531871003217e-17 -0.3125 3.2399999999999998 ) // 95
( 0.15624999999999978 -0.2706329386826372 3.2399999999999998 ) // 96
( 0.270632938682637 -0.15625000000000014 3.2399999999999998 ) // 97

//circles

//circle 0
( 0.825 0.0 3.2399999999999998 ) //98
( 0.7144709581221619 0.4124999999999999 3.2399999999999998 ) //99
( 0.4125000000000001 0.7144709581221618 3.2399999999999998 ) //100
( 5.051668046482832e-17 0.825 3.2399999999999998 ) //101
( -0.4124999999999998 0.7144709581221619 3.2399999999999998 ) //102
( -0.7144709581221617 0.41250000000000026 3.2399999999999998 ) //103
( -0.825 1.0103336092965664e-16 3.2399999999999998 ) //104
( -0.714470958122162 -0.41249999999999976 3.2399999999999998 ) //105
( -0.41250000000000037 -0.7144709581221617 3.2399999999999998 ) //106
( -1.5155004139448494e-16 -0.825 3.2399999999999998 ) //107
( 0.4124999999999994 -0.7144709581221622 3.2399999999999998 ) //108
( 0.7144709581221617 -0.41250000000000037 3.2399999999999998 ) //109

//circle 1
( 0.875 0.0 3.2399999999999998 ) //110
( 0.7577722283113839 0.43749999999999994 3.2399999999999998 ) //111
( 0.4375000000000001 0.7577722283113838 3.2399999999999998 ) //112
( 5.35782974626967e-17 0.875 3.2399999999999998 ) //113
( -0.4374999999999998 0.7577722283113839 3.2399999999999998 ) //114
( -0.7577722283113837 0.4375000000000003 3.2399999999999998 ) //115
( -0.875 1.071565949253934e-16 3.2399999999999998 ) //116
( -0.7577722283113839 -0.4374999999999998 3.2399999999999998 ) //117
( -0.4375000000000004 -0.7577722283113836 3.2399999999999998 ) //118
( -1.607348923880901e-16 -0.875 3.2399999999999998 ) //119
( 0.43749999999999944 -0.7577722283113841 3.2399999999999998 ) //120
( 0.7577722283113836 -0.4375000000000004 3.2399999999999998 ) //121

//circle 2
( 1.375 0.0 3.2399999999999998 ) //122
( 1.1907849302036033 0.6874999999999999 3.2399999999999998 ) //123
( 0.6875000000000001 1.190784930203603 3.2399999999999998 ) //124
( 8.419446744138054e-17 1.375 3.2399999999999998 ) //125
( -0.6874999999999997 1.1907849302036033 3.2399999999999998 ) //126
( -1.1907849302036029 0.6875000000000004 3.2399999999999998 ) //127
( -1.375 1.6838893488276108e-16 3.2399999999999998 ) //128
( -1.1907849302036033 -0.6874999999999997 3.2399999999999998 ) //129
( -0.6875000000000007 -1.1907849302036029 3.2399999999999998 ) //130
( -2.525834023241416e-16 -1.375 3.2399999999999998 ) //131
( 0.6874999999999991 -1.1907849302036038 3.2399999999999998 ) //132
( 1.1907849302036029 -0.6875000000000007 3.2399999999999998 ) //133

//circle 3
( 1.6875 0.0 3.2399999999999998 ) //134
( 1.4614178688862403 0.8437499999999999 3.2399999999999998 ) //135
( 0.8437500000000002 1.46141786888624 3.2399999999999998 ) //136
( 1.0332957367805793e-16 1.6875 3.2399999999999998 ) //137
( -0.8437499999999997 1.4614178688862403 3.2399999999999998 ) //138
( -1.46141786888624 0.8437500000000006 3.2399999999999998 ) //139
( -1.6875 2.0665914735611586e-16 3.2399999999999998 ) //140
( -1.4614178688862405 -0.8437499999999996 3.2399999999999998 ) //141
( -0.8437500000000008 -1.4614178688862398 3.2399999999999998 ) //142
( -3.0998872103417374e-16 -1.6875 3.2399999999999998 ) //143
( 0.8437499999999989 -1.461417868886241 3.2399999999999998 ) //144
( 1.4614178688862398 -0.8437500000000008 3.2399999999999998 ) //145

//circle 4
( 2.0 0.0 3.2399999999999998 ) //146
( 1.7320508075688774 0.9999999999999999 3.2399999999999998 ) //147
( 1.0000000000000002 1.7320508075688772 3.2399999999999998 ) //148
( 1.2246467991473532e-16 2.0 3.2399999999999998 ) //149
( -0.9999999999999996 1.7320508075688774 3.2399999999999998 ) //150
( -1.732050807568877 1.0000000000000007 3.2399999999999998 ) //151
( -2.0 2.4492935982947064e-16 3.2399999999999998 ) //152
( -1.7320508075688776 -0.9999999999999994 3.2399999999999998 ) //153
( -1.0000000000000009 -1.7320508075688767 3.2399999999999998 ) //154
( -3.6739403974420594e-16 -2.0 3.2399999999999998 ) //155
( 0.9999999999999987 -1.732050807568878 3.2399999999999998 ) //156
( 1.7320508075688767 -1.0000000000000009 3.2399999999999998 ) //157

//circle 5
( 2.5 0.0 3.2399999999999998 ) //158
( 2.165063509461097 1.2499999999999998 3.2399999999999998 ) //159
( 1.2500000000000002 2.1650635094610964 3.2399999999999998 ) //160
( 1.5308084989341916e-16 2.5 3.2399999999999998 ) //161
( -1.2499999999999996 2.165063509461097 3.2399999999999998 ) //162
( -2.1650635094610964 1.2500000000000009 3.2399999999999998 ) //163
( -2.5 3.061616997868383e-16 3.2399999999999998 ) //164
( -2.1650635094610973 -1.2499999999999993 3.2399999999999998 ) //165
( -1.250000000000001 -2.165063509461096 3.2399999999999998 ) //166
( -4.592425496802574e-16 -2.5 3.2399999999999998 ) //167
( 1.2499999999999982 -2.1650635094610977 3.2399999999999998 ) //168
( 2.165063509461096 -1.250000000000001 3.2399999999999998 ) //169

//section 2

//center
(0.0 0.0 3.38) // 170

//polygon
( 0.3125 0.0 3.38 ) // 171
( 0.2706329386826371 0.15624999999999997 3.38 ) // 172
( 0.15625000000000003 0.27063293868263705 3.38 ) // 173
( 1.9135106236677395e-17 0.3125 3.38 ) // 174
( -0.15624999999999994 0.2706329386826371 3.38 ) // 175
( -0.27063293868263705 0.1562500000000001 3.38 ) // 176
( -0.3125 3.827021247335479e-17 3.38 ) // 177
( -0.27063293868263716 -0.15624999999999992 3.38 ) // 178
( -0.15625000000000014 -0.270632938682637 3.38 ) // 179
( -5.740531871003217e-17 -0.3125 3.38 ) // 180
( 0.15624999999999978 -0.2706329386826372 3.38 ) // 181
( 0.270632938682637 -0.15625000000000014 3.38 ) // 182

//circles

//circle 0
( 0.825 0.0 3.38 ) //183
( 0.7144709581221619 0.4124999999999999 3.38 ) //184
( 0.4125000000000001 0.7144709581221618 3.38 ) //185
( 5.051668046482832e-17 0.825 3.38 ) //186
( -0.4124999999999998 0.7144709581221619 3.38 ) //187
( -0.7144709581221617 0.41250000000000026 3.38 ) //188
( -0.825 1.0103336092965664e-16 3.38 ) //189
( -0.714470958122162 -0.41249999999999976 3.38 ) //190
( -0.41250000000000037 -0.7144709581221617 3.38 ) //191
( -1.5155004139448494e-16 -0.825 3.38 ) //192
( 0.4124999999999994 -0.7144709581221622 3.38 ) //193
( 0.7144709581221617 -0.41250000000000037 3.38 ) //194

//circle 1
( 0.875 0.0 3.38 ) //195
( 0.7577722283113839 0.43749999999999994 3.38 ) //196
( 0.4375000000000001 0.7577722283113838 3.38 ) //197
( 5.35782974626967e-17 0.875 3.38 ) //198
( -0.4374999999999998 0.7577722283113839 3.38 ) //199
( -0.7577722283113837 0.4375000000000003 3.38 ) //200
( -0.875 1.071565949253934e-16 3.38 ) //201
( -0.7577722283113839 -0.4374999999999998 3.38 ) //202
( -0.4375000000000004 -0.7577722283113836 3.38 ) //203
( -1.607348923880901e-16 -0.875 3.38 ) //204
( 0.43749999999999944 -0.7577722283113841 3.38 ) //205
( 0.7577722283113836 -0.4375000000000004 3.38 ) //206

//circle 2
( 1.375 0.0 3.38 ) //207
( 1.1907849302036033 0.6874999999999999 3.38 ) //208
( 0.6875000000000001 1.190784930203603 3.38 ) //209
( 8.419446744138054e-17 1.375 3.38 ) //210
( -0.6874999999999997 1.1907849302036033 3.38 ) //211
( -1.1907849302036029 0.6875000000000004 3.38 ) //212
( -1.375 1.6838893488276108e-16 3.38 ) //213
( -1.1907849302036033 -0.6874999999999997 3.38 ) //214
( -0.6875000000000007 -1.1907849302036029 3.38 ) //215
( -2.525834023241416e-16 -1.375 3.38 ) //216
( 0.6874999999999991 -1.1907849302036038 3.38 ) //217
( 1.1907849302036029 -0.6875000000000007 3.38 ) //218

//circle 3
( 1.6875 0.0 3.38 ) //219
( 1.4614178688862403 0.8437499999999999 3.38 ) //220
( 0.8437500000000002 1.46141786888624 3.38 ) //221
( 1.0332957367805793e-16 1.6875 3.38 ) //222
( -0.8437499999999997 1.4614178688862403 3.38 ) //223
( -1.46141786888624 0.8437500000000006 3.38 ) //224
( -1.6875 2.0665914735611586e-16 3.38 ) //225
( -1.4614178688862405 -0.8437499999999996 3.38 ) //226
( -0.8437500000000008 -1.4614178688862398 3.38 ) //227
( -3.0998872103417374e-16 -1.6875 3.38 ) //228
( 0.8437499999999989 -1.461417868886241 3.38 ) //229
( 1.4614178688862398 -0.8437500000000008 3.38 ) //230

//circle 4
( 2.0 0.0 3.38 ) //231
( 1.7320508075688774 0.9999999999999999 3.38 ) //232
( 1.0000000000000002 1.7320508075688772 3.38 ) //233
( 1.2246467991473532e-16 2.0 3.38 ) //234
( -0.9999999999999996 1.7320508075688774 3.38 ) //235
( -1.732050807568877 1.0000000000000007 3.38 ) //236
( -2.0 2.4492935982947064e-16 3.38 ) //237
( -1.7320508075688776 -0.9999999999999994 3.38 ) //238
( -1.0000000000000009 -1.7320508075688767 3.38 ) //239
( -3.6739403974420594e-16 -2.0 3.38 ) //240
( 0.9999999999999987 -1.732050807568878 3.38 ) //241
( 1.7320508075688767 -1.0000000000000009 3.38 ) //242

//circle 5
( 2.5 0.0 3.38 ) //243
( 2.165063509461097 1.2499999999999998 3.38 ) //244
( 1.2500000000000002 2.1650635094610964 3.38 ) //245
( 1.5308084989341916e-16 2.5 3.38 ) //246
( -1.2499999999999996 2.165063509461097 3.38 ) //247
( -2.1650635094610964 1.2500000000000009 3.38 ) //248
( -2.5 3.061616997868383e-16 3.38 ) //249
( -2.1650635094610973 -1.2499999999999993 3.38 ) //250
( -1.250000000000001 -2.165063509461096 3.38 ) //251
( -4.592425496802574e-16 -2.5 3.38 ) //252
( 1.2499999999999982 -2.1650635094610977 3.38 ) //253
( 2.165063509461096 -1.250000000000001 3.38 ) //254

//section 3

//center
(0.0 0.0 3.5) // 255

//polygon
( 0.3125 0.0 3.5 ) // 256
( 0.2706329386826371 0.15624999999999997 3.5 ) // 257
( 0.15625000000000003 0.27063293868263705 3.5 ) // 258
( 1.9135106236677395e-17 0.3125 3.5 ) // 259
( -0.15624999999999994 0.2706329386826371 3.5 ) // 260
( -0.27063293868263705 0.1562500000000001 3.5 ) // 261
( -0.3125 3.827021247335479e-17 3.5 ) // 262
( -0.27063293868263716 -0.15624999999999992 3.5 ) // 263
( -0.15625000000000014 -0.270632938682637 3.5 ) // 264
( -5.740531871003217e-17 -0.3125 3.5 ) // 265
( 0.15624999999999978 -0.2706329386826372 3.5 ) // 266
( 0.270632938682637 -0.15625000000000014 3.5 ) // 267

//circles

//circle 0
( 0.825 0.0 3.5 ) //268
( 0.7144709581221619 0.4124999999999999 3.5 ) //269
( 0.4125000000000001 0.7144709581221618 3.5 ) //270
( 5.051668046482832e-17 0.825 3.5 ) //271
( -0.4124999999999998 0.7144709581221619 3.5 ) //272
( -0.7144709581221617 0.41250000000000026 3.5 ) //273
( -0.825 1.0103336092965664e-16 3.5 ) //274
( -0.714470958122162 -0.41249999999999976 3.5 ) //275
( -0.41250000000000037 -0.7144709581221617 3.5 ) //276
( -1.5155004139448494e-16 -0.825 3.5 ) //277
( 0.4124999999999994 -0.7144709581221622 3.5 ) //278
( 0.7144709581221617 -0.41250000000000037 3.5 ) //279

//circle 1
( 0.875 0.0 3.5 ) //280
( 0.7577722283113839 0.43749999999999994 3.5 ) //281
( 0.4375000000000001 0.7577722283113838 3.5 ) //282
( 5.35782974626967e-17 0.875 3.5 ) //283
( -0.4374999999999998 0.7577722283113839 3.5 ) //284
( -0.7577722283113837 0.4375000000000003 3.5 ) //285
( -0.875 1.071565949253934e-16 3.5 ) //286
( -0.7577722283113839 -0.4374999999999998 3.5 ) //287
( -0.4375000000000004 -0.7577722283113836 3.5 ) //288
( -1.607348923880901e-16 -0.875 3.5 ) //289
( 0.43749999999999944 -0.7577722283113841 3.5 ) //290
( 0.7577722283113836 -0.4375000000000004 3.5 ) //291

//circle 2
( 1.375 0.0 3.5 ) //292
( 1.1907849302036033 0.6874999999999999 3.5 ) //293
( 0.6875000000000001 1.190784930203603 3.5 ) //294
( 8.419446744138054e-17 1.375 3.5 ) //295
( -0.6874999999999997 1.1907849302036033 3.5 ) //296
( -1.1907849302036029 0.6875000000000004 3.5 ) //297
( -1.375 1.6838893488276108e-16 3.5 ) //298
( -1.1907849302036033 -0.6874999999999997 3.5 ) //299
( -0.6875000000000007 -1.1907849302036029 3.5 ) //300
( -2.525834023241416e-16 -1.375 3.5 ) //301
( 0.6874999999999991 -1.1907849302036038 3.5 ) //302
( 1.1907849302036029 -0.6875000000000007 3.5 ) //303

//circle 3
( 1.6875 0.0 3.5 ) //304
( 1.4614178688862403 0.8437499999999999 3.5 ) //305
( 0.8437500000000002 1.46141786888624 3.5 ) //306
( 1.0332957367805793e-16 1.6875 3.5 ) //307
( -0.8437499999999997 1.4614178688862403 3.5 ) //308
( -1.46141786888624 0.8437500000000006 3.5 ) //309
( -1.6875 2.0665914735611586e-16 3.5 ) //310
( -1.4614178688862405 -0.8437499999999996 3.5 ) //311
( -0.8437500000000008 -1.4614178688862398 3.5 ) //312
( -3.0998872103417374e-16 -1.6875 3.5 ) //313
( 0.8437499999999989 -1.461417868886241 3.5 ) //314
( 1.4614178688862398 -0.8437500000000008 3.5 ) //315

//circle 4
( 2.0 0.0 3.5 ) //316
( 1.7320508075688774 0.9999999999999999 3.5 ) //317
( 1.0000000000000002 1.7320508075688772 3.5 ) //318
( 1.2246467991473532e-16 2.0 3.5 ) //319
( -0.9999999999999996 1.7320508075688774 3.5 ) //320
( -1.732050807568877 1.0000000000000007 3.5 ) //321
( -2.0 2.4492935982947064e-16 3.5 ) //322
( -1.7320508075688776 -0.9999999999999994 3.5 ) //323
( -1.0000000000000009 -1.7320508075688767 3.5 ) //324
( -3.6739403974420594e-16 -2.0 3.5 ) //325
( 0.9999999999999987 -1.732050807568878 3.5 ) //326
( 1.7320508075688767 -1.0000000000000009 3.5 ) //327

//circle 5
( 2.5 0.0 3.5 ) //328
( 2.165063509461097 1.2499999999999998 3.5 ) //329
( 1.2500000000000002 2.1650635094610964 3.5 ) //330
( 1.5308084989341916e-16 2.5 3.5 ) //331
( -1.2499999999999996 2.165063509461097 3.5 ) //332
( -2.1650635094610964 1.2500000000000009 3.5 ) //333
( -2.5 3.061616997868383e-16 3.5 ) //334
( -2.1650635094610973 -1.2499999999999993 3.5 ) //335
( -1.250000000000001 -2.165063509461096 3.5 ) //336
( -4.592425496802574e-16 -2.5 3.5 ) //337
( 1.2499999999999982 -2.1650635094610977 3.5 ) //338
( 2.165063509461096 -1.250000000000001 3.5 ) //339

//section 4

//center
(0.0 0.0 3.64) // 340

//polygon
( 0.3125 0.0 3.64 ) // 341
( 0.2706329386826371 0.15624999999999997 3.64 ) // 342
( 0.15625000000000003 0.27063293868263705 3.64 ) // 343
( 1.9135106236677395e-17 0.3125 3.64 ) // 344
( -0.15624999999999994 0.2706329386826371 3.64 ) // 345
( -0.27063293868263705 0.1562500000000001 3.64 ) // 346
( -0.3125 3.827021247335479e-17 3.64 ) // 347
( -0.27063293868263716 -0.15624999999999992 3.64 ) // 348
( -0.15625000000000014 -0.270632938682637 3.64 ) // 349
( -5.740531871003217e-17 -0.3125 3.64 ) // 350
( 0.15624999999999978 -0.2706329386826372 3.64 ) // 351
( 0.270632938682637 -0.15625000000000014 3.64 ) // 352

//circles

//circle 0
( 0.825 0.0 3.64 ) //353
( 0.7144709581221619 0.4124999999999999 3.64 ) //354
( 0.4125000000000001 0.7144709581221618 3.64 ) //355
( 5.051668046482832e-17 0.825 3.64 ) //356
( -0.4124999999999998 0.7144709581221619 3.64 ) //357
( -0.7144709581221617 0.41250000000000026 3.64 ) //358
( -0.825 1.0103336092965664e-16 3.64 ) //359
( -0.714470958122162 -0.41249999999999976 3.64 ) //360
( -0.41250000000000037 -0.7144709581221617 3.64 ) //361
( -1.5155004139448494e-16 -0.825 3.64 ) //362
( 0.4124999999999994 -0.7144709581221622 3.64 ) //363
( 0.7144709581221617 -0.41250000000000037 3.64 ) //364

//circle 1
( 0.875 0.0 3.64 ) //365
( 0.7577722283113839 0.43749999999999994 3.64 ) //366
( 0.4375000000000001 0.7577722283113838 3.64 ) //367
( 5.35782974626967e-17 0.875 3.64 ) //368
( -0.4374999999999998 0.7577722283113839 3.64 ) //369
( -0.7577722283113837 0.4375000000000003 3.64 ) //370
( -0.875 1.071565949253934e-16 3.64 ) //371
( -0.7577722283113839 -0.4374999999999998 3.64 ) //372
( -0.4375000000000004 -0.7577722283113836 3.64 ) //373
( -1.607348923880901e-16 -0.875 3.64 ) //374
( 0.43749999999999944 -0.7577722283113841 3.64 ) //375
( 0.7577722283113836 -0.4375000000000004 3.64 ) //376

//circle 2
( 1.375 0.0 3.64 ) //377
( 1.1907849302036033 0.6874999999999999 3.64 ) //378
( 0.6875000000000001 1.190784930203603 3.64 ) //379
( 8.419446744138054e-17 1.375 3.64 ) //380
( -0.6874999999999997 1.1907849302036033 3.64 ) //381
( -1.1907849302036029 0.6875000000000004 3.64 ) //382
( -1.375 1.6838893488276108e-16 3.64 ) //383
( -1.1907849302036033 -0.6874999999999997 3.64 ) //384
( -0.6875000000000007 -1.1907849302036029 3.64 ) //385
( -2.525834023241416e-16 -1.375 3.64 ) //386
( 0.6874999999999991 -1.1907849302036038 3.64 ) //387
( 1.1907849302036029 -0.6875000000000007 3.64 ) //388

//circle 3
( 1.6875 0.0 3.64 ) //389
( 1.4614178688862403 0.8437499999999999 3.64 ) //390
( 0.8437500000000002 1.46141786888624 3.64 ) //391
( 1.0332957367805793e-16 1.6875 3.64 ) //392
( -0.8437499999999997 1.4614178688862403 3.64 ) //393
( -1.46141786888624 0.8437500000000006 3.64 ) //394
( -1.6875 2.0665914735611586e-16 3.64 ) //395
( -1.4614178688862405 -0.8437499999999996 3.64 ) //396
( -0.8437500000000008 -1.4614178688862398 3.64 ) //397
( -3.0998872103417374e-16 -1.6875 3.64 ) //398
( 0.8437499999999989 -1.461417868886241 3.64 ) //399
( 1.4614178688862398 -0.8437500000000008 3.64 ) //400

//circle 4
( 2.0 0.0 3.64 ) //401
( 1.7320508075688774 0.9999999999999999 3.64 ) //402
( 1.0000000000000002 1.7320508075688772 3.64 ) //403
( 1.2246467991473532e-16 2.0 3.64 ) //404
( -0.9999999999999996 1.7320508075688774 3.64 ) //405
( -1.732050807568877 1.0000000000000007 3.64 ) //406
( -2.0 2.4492935982947064e-16 3.64 ) //407
( -1.7320508075688776 -0.9999999999999994 3.64 ) //408
( -1.0000000000000009 -1.7320508075688767 3.64 ) //409
( -3.6739403974420594e-16 -2.0 3.64 ) //410
( 0.9999999999999987 -1.732050807568878 3.64 ) //411
( 1.7320508075688767 -1.0000000000000009 3.64 ) //412

//circle 5
( 2.5 0.0 3.64 ) //413
( 2.165063509461097 1.2499999999999998 3.64 ) //414
( 1.2500000000000002 2.1650635094610964 3.64 ) //415
( 1.5308084989341916e-16 2.5 3.64 ) //416
( -1.2499999999999996 2.165063509461097 3.64 ) //417
( -2.1650635094610964 1.2500000000000009 3.64 ) //418
( -2.5 3.061616997868383e-16 3.64 ) //419
( -2.1650635094610973 -1.2499999999999993 3.64 ) //420
( -1.250000000000001 -2.165063509461096 3.64 ) //421
( -4.592425496802574e-16 -2.5 3.64 ) //422
( 1.2499999999999982 -2.1650635094610977 3.64 ) //423
( 2.165063509461096 -1.250000000000001 3.64 ) //424

//section 5

//center
(0.0 0.0 7.419999999999999) // 425

//polygon
( 0.3125 0.0 7.419999999999999 ) // 426
( 0.2706329386826371 0.15624999999999997 7.419999999999999 ) // 427
( 0.15625000000000003 0.27063293868263705 7.419999999999999 ) // 428
( 1.9135106236677395e-17 0.3125 7.419999999999999 ) // 429
( -0.15624999999999994 0.2706329386826371 7.419999999999999 ) // 430
( -0.27063293868263705 0.1562500000000001 7.419999999999999 ) // 431
( -0.3125 3.827021247335479e-17 7.419999999999999 ) // 432
( -0.27063293868263716 -0.15624999999999992 7.419999999999999 ) // 433
( -0.15625000000000014 -0.270632938682637 7.419999999999999 ) // 434
( -5.740531871003217e-17 -0.3125 7.419999999999999 ) // 435
( 0.15624999999999978 -0.2706329386826372 7.419999999999999 ) // 436
( 0.270632938682637 -0.15625000000000014 7.419999999999999 ) // 437

//circles

//circle 0
( 0.825 0.0 7.419999999999999 ) //438
( 0.7144709581221619 0.4124999999999999 7.419999999999999 ) //439
( 0.4125000000000001 0.7144709581221618 7.419999999999999 ) //440
( 5.051668046482832e-17 0.825 7.419999999999999 ) //441
( -0.4124999999999998 0.7144709581221619 7.419999999999999 ) //442
( -0.7144709581221617 0.41250000000000026 7.419999999999999 ) //443
( -0.825 1.0103336092965664e-16 7.419999999999999 ) //444
( -0.714470958122162 -0.41249999999999976 7.419999999999999 ) //445
( -0.41250000000000037 -0.7144709581221617 7.419999999999999 ) //446
( -1.5155004139448494e-16 -0.825 7.419999999999999 ) //447
( 0.4124999999999994 -0.7144709581221622 7.419999999999999 ) //448
( 0.7144709581221617 -0.41250000000000037 7.419999999999999 ) //449

//circle 1
( 0.875 0.0 7.419999999999999 ) //450
( 0.7577722283113839 0.43749999999999994 7.419999999999999 ) //451
( 0.4375000000000001 0.7577722283113838 7.419999999999999 ) //452
( 5.35782974626967e-17 0.875 7.419999999999999 ) //453
( -0.4374999999999998 0.7577722283113839 7.419999999999999 ) //454
( -0.7577722283113837 0.4375000000000003 7.419999999999999 ) //455
( -0.875 1.071565949253934e-16 7.419999999999999 ) //456
( -0.7577722283113839 -0.4374999999999998 7.419999999999999 ) //457
( -0.4375000000000004 -0.7577722283113836 7.419999999999999 ) //458
( -1.607348923880901e-16 -0.875 7.419999999999999 ) //459
( 0.43749999999999944 -0.7577722283113841 7.419999999999999 ) //460
( 0.7577722283113836 -0.4375000000000004 7.419999999999999 ) //461

//circle 2
( 1.375 0.0 7.419999999999999 ) //462
( 1.1907849302036033 0.6874999999999999 7.419999999999999 ) //463
( 0.6875000000000001 1.190784930203603 7.419999999999999 ) //464
( 8.419446744138054e-17 1.375 7.419999999999999 ) //465
( -0.6874999999999997 1.1907849302036033 7.419999999999999 ) //466
( -1.1907849302036029 0.6875000000000004 7.419999999999999 ) //467
( -1.375 1.6838893488276108e-16 7.419999999999999 ) //468
( -1.1907849302036033 -0.6874999999999997 7.419999999999999 ) //469
( -0.6875000000000007 -1.1907849302036029 7.419999999999999 ) //470
( -2.525834023241416e-16 -1.375 7.419999999999999 ) //471
( 0.6874999999999991 -1.1907849302036038 7.419999999999999 ) //472
( 1.1907849302036029 -0.6875000000000007 7.419999999999999 ) //473

//circle 3
( 1.6875 0.0 7.419999999999999 ) //474
( 1.4614178688862403 0.8437499999999999 7.419999999999999 ) //475
( 0.8437500000000002 1.46141786888624 7.419999999999999 ) //476
( 1.0332957367805793e-16 1.6875 7.419999999999999 ) //477
( -0.8437499999999997 1.4614178688862403 7.419999999999999 ) //478
( -1.46141786888624 0.8437500000000006 7.419999999999999 ) //479
( -1.6875 2.0665914735611586e-16 7.419999999999999 ) //480
( -1.4614178688862405 -0.8437499999999996 7.419999999999999 ) //481
( -0.8437500000000008 -1.4614178688862398 7.419999999999999 ) //482
( -3.0998872103417374e-16 -1.6875 7.419999999999999 ) //483
( 0.8437499999999989 -1.461417868886241 7.419999999999999 ) //484
( 1.4614178688862398 -0.8437500000000008 7.419999999999999 ) //485

//circle 4
( 2.0 0.0 7.419999999999999 ) //486
( 1.7320508075688774 0.9999999999999999 7.419999999999999 ) //487
( 1.0000000000000002 1.7320508075688772 7.419999999999999 ) //488
( 1.2246467991473532e-16 2.0 7.419999999999999 ) //489
( -0.9999999999999996 1.7320508075688774 7.419999999999999 ) //490
( -1.732050807568877 1.0000000000000007 7.419999999999999 ) //491
( -2.0 2.4492935982947064e-16 7.419999999999999 ) //492
( -1.7320508075688776 -0.9999999999999994 7.419999999999999 ) //493
( -1.0000000000000009 -1.7320508075688767 7.419999999999999 ) //494
( -3.6739403974420594e-16 -2.0 7.419999999999999 ) //495
( 0.9999999999999987 -1.732050807568878 7.419999999999999 ) //496
( 1.7320508075688767 -1.0000000000000009 7.419999999999999 ) //497

//circle 5
( 2.5 0.0 7.419999999999999 ) //498
( 2.165063509461097 1.2499999999999998 7.419999999999999 ) //499
( 1.2500000000000002 2.1650635094610964 7.419999999999999 ) //500
( 1.5308084989341916e-16 2.5 7.419999999999999 ) //501
( -1.2499999999999996 2.165063509461097 7.419999999999999 ) //502
( -2.1650635094610964 1.2500000000000009 7.419999999999999 ) //503
( -2.5 3.061616997868383e-16 7.419999999999999 ) //504
( -2.1650635094610973 -1.2499999999999993 7.419999999999999 ) //505
( -1.250000000000001 -2.165063509461096 7.419999999999999 ) //506
( -4.592425496802574e-16 -2.5 7.419999999999999 ) //507