/*--------------------------------*- C++ -*----------------------------------*\
  =========                 |
  \\      /  F ield         | OpenFOAM: The Open Source CFD Toolbox
   \\    /   O peration     | Website:  https://openfoam.org
    \\  /    A nd           | Version:  12
     \\/     M anipulation  |
\*---------------------------------------------------------------------------*/
FoamFile
{
    format      ascii;
    class       volScalarField;
    location    "0";
    object      alpha.gas;
}
// * * * * * * * * * * * * * * * * * * * * * * * * * * * * * * * * * * * * * //

dimensions      [];

internalField   uniform 0;

boundaryField
{
    #includeEtc "caseDicts/setConstraintTypes"

    inlet
    {
        type            fixedValue;
        value           uniform 0.5;
    }
    outlet
    {
        type            inletOutlet;
        phi             phi.gas;
        inletValue      uniform 1;
        value           uniform 1;
    }
    "vessel|shaft|heater|walls|impeller"
    {
        type            zeroGradient;
    }
    
    nonCouple
    {
        type            zeroGradient;
    }

}

// ************************************************************************* //
