/*--------------------------------*- C++ -*----------------------------------*\
  =========                 |
  \\      /  F ield         | OpenFOAM: The Open Source CFD Toolbox
   \\    /   O peration     | Website:  https://openfoam.org
    \\  /    A nd           | Version:  12
     \\/     M anipulation  |
\*---------------------------------------------------------------------------*/
FoamFile
{
    format      ascii;
    class       volScalarField;
    object      epsilon;
}
// * * * * * * * * * * * * * * * * * * * * * * * * * * * * * * * * * * * * * //
#include "$FOAM_CASE/constant/globalVars";

dimensions      [0 2 -3 0 0 0 0];

internalField   uniform 1e-4;

boundaryField
{
    #includeEtc "caseDicts/setConstraintTypes"

    inlet
    {
        type            fixedValue;
        value           uniform $eps_inlet_gas;
    }

    outlet
    {
        type            inletOutlet;
        phi             phi.gas;
        inletValue      $internalField;
        value           $internalField;
    }

    "vessel|shaft|heater|walls|impeller"
    {
        type            epsilonWallFunction;
        value           $internalField;
    }
    
    nonCouple
    {
        type            zeroGradient;
    }


}

// ************************************************************************* //
