/*--------------------------------*- C++ -*----------------------------------*\
  =========                 |
  \\      /  F ield         | OpenFOAM: The Open Source CFD Toolbox
   \\    /   O peration     | Website:  https://openfoam.org
    \\  /    A nd           | Version:  9
     \\/     M anipulation  |
\*---------------------------------------------------------------------------*/
FoamFile
{
    format      ascii;
    class       featureEdgeMesh;
    location    "constant/triSurface";
    object      cylinder.eMesh;
}
// * * * * * * * * * * * * * * * * * * * * * * * * * * * * * * * * * * * * * //


// points:

72
(
(0.0016 0 0.01)
(0.00157569 0.000277837 0.01)
(0.00157569 0.000277837 0)
(0.0016 0 0)
(0.00150351 0.000547232 0.01)
(0.00150351 0.000547232 0)
(0.00138564 0.0008 0.01)
(0.00138564 0.0008 0)
(0.00122567 0.00102846 0.01)
(0.00122567 0.00102846 0)
(0.00102846 0.00122567 0.01)
(0.00102846 0.00122567 0)
(0.0008 0.00138564 0.01)
(0.0008 0.00138564 0)
(0.000547232 0.00150351 0.01)
(0.000547232 0.00150351 0)
(0.000277837 0.00157569 0.01)
(0.000277837 0.00157569 0)
(-1.654e-16 0.0016 0.01)
(-1.654e-16 0.0016 0)
(-0.000277837 0.00157569 0.01)
(-0.000277837 0.00157569 0)
(-0.000547232 0.00150351 0.01)
(-0.000547232 0.00150351 0)
(-0.0008 0.00138564 0.01)
(-0.0008 0.00138564 0)
(-0.00102846 0.00122567 0.01)
(-0.00102846 0.00122567 0)
(-0.00122567 0.00102846 0.01)
(-0.00122567 0.00102846 0)
(-0.00138564 0.0008 0.01)
(-0.00138564 0.0008 0)
(-0.00150351 0.000547232 0.01)
(-0.00150351 0.000547232 0)
(-0.00157569 0.000277837 0.01)
(-0.00157569 0.000277837 0)
(-0.0016 -3.3081e-16 0.01)
(-0.0016 -3.3081e-16 0)
(-0.00157569 -0.000277837 0.01)
(-0.00157569 -0.000277837 0)
(-0.00150351 -0.000547232 0.01)
(-0.00150351 -0.000547232 0)
(-0.00138564 -0.0008 0.01)
(-0.00138564 -0.0008 0)
(-0.00122567 -0.00102846 0.01)
(-0.00122567 -0.00102846 0)
(-0.00102846 -0.00122567 0.01)
(-0.00102846 -0.00122567 0)
(-0.0008 -0.00138564 0.01)
(-0.0008 -0.00138564 0)
(-0.000547232 -0.00150351 0.01)
(-0.000547232 -0.00150351 0)
(-0.000277837 -0.00157569 0.01)
(-0.000277837 -0.00157569 0)
(4.9622e-16 -0.0016 0.01)
(4.9622e-16 -0.0016 0)
(0.000277837 -0.00157569 0.01)
(0.000277837 -0.00157569 0)
(0.000547232 -0.00150351 0.01)
(0.000547232 -0.00150351 0)
(0.0008 -0.00138564 0.01)
(0.0008 -0.00138564 0)
(0.00102846 -0.00122567 0.01)
(0.00102846 -0.00122567 0)
(0.00122567 -0.00102846 0.01)
(0.00122567 -0.00102846 0)
(0.00138564 -0.0008 0.01)
(0.00138564 -0.0008 0)
(0.00150351 -0.000547232 0.01)
(0.00150351 -0.000547232 0)
(0.00157569 -0.000277837 0.01)
(0.00157569 -0.000277837 0)
)


// edges:

72
(
(0 1)
(2 3)
(1 4)
(5 2)
(4 6)
(7 5)
(6 8)
(9 7)
(8 10)
(11 9)
(10 12)
(13 11)
(12 14)
(15 13)
(14 16)
(17 15)
(16 18)
(19 17)
(18 20)
(21 19)
(20 22)
(23 21)
(22 24)
(25 23)
(24 26)
(27 25)
(26 28)
(29 27)
(28 30)
(31 29)
(30 32)
(33 31)
(32 34)
(35 33)
(34 36)
(37 35)
(36 38)
(39 37)
(38 40)
(41 39)
(40 42)
(43 41)
(42 44)
(45 43)
(44 46)
(47 45)
(46 48)
(49 47)
(48 50)
(51 49)
(50 52)
(53 51)
(52 54)
(55 53)
(54 56)
(57 55)
(56 58)
(59 57)
(58 60)
(61 59)
(60 62)
(63 61)
(62 64)
(65 63)
(64 66)
(67 65)
(66 68)
(69 67)
(68 70)
(71 69)
(70 0)
(3 71)
)

// * * * * * * * * * * * * * * * * * * * * * * * * * * * * * * * * * * * * * //


// ************************************************************************* //
