FoamFile
{
    version     2.0;
    format      ascii;
    class       dictionary;
    object      blockMeshDict;
}

convertToMeters 1.0;


// * * * * * * * * * * * * * * * * * * * * * * * * * * * * * * * * * * * * * //
vertices
(
( 0.0 0.0  0.0)
( 1.0 0.0  0.0)
( 2.0 0.0  0.0)
( 3.0 0.0  0.0)
( 4.0 0.0  0.0)
( 5.0 0.0  0.0)
( 6.0 0.0  0.0)
( 7.0 0.0  0.0)
( 8.0 0.0  0.0)
( 9.0 0.0  0.0)
( 10.0 0.0  0.0)
( 0.0 1.0  0.0)
( 1.0 1.0  0.0)
( 2.0 1.0  0.0)
( 3.0 1.0  0.0)
( 4.0 1.0  0.0)
( 5.0 1.0  0.0)
( 6.0 1.0  0.0)
( 7.0 1.0  0.0)
( 8.0 1.0  0.0)
( 9.0 1.0  0.0)
( 10.0 1.0  0.0)
( 0.0 2.0  0.0)
( 1.0 2.0  0.0)
( 2.0 2.0  0.0)
( 3.0 2.0  0.0)
( 4.0 2.0  0.0)
( 5.0 2.0  0.0)
( 6.0 2.0  0.0)
( 7.0 2.0  0.0)
( 8.0 2.0  0.0)
( 9.0 2.0  0.0)
( 10.0 2.0  0.0)
( 0.0 3.0  0.0)
( 1.0 3.0  0.0)
( 2.0 3.0  0.0)
( 3.0 3.0  0.0)
( 4.0 3.0  0.0)
( 5.0 3.0  0.0)
( 6.0 3.0  0.0)
( 7.0 3.0  0.0)
( 8.0 3.0  0.0)
( 9.0 3.0  0.0)
( 10.0 3.0  0.0)
( 0.0 4.0  0.0)
( 1.0 4.0  0.0)
( 2.0 4.0  0.0)
( 3.0 4.0  0.0)
( 4.0 4.0  0.0)
( 5.0 4.0  0.0)
( 6.0 4.0  0.0)
( 7.0 4.0  0.0)
( 8.0 4.0  0.0)
( 9.0 4.0  0.0)
( 10.0 4.0  0.0)
( 0.0 5.0  0.0)
( 1.0 5.0  0.0)
( 2.0 5.0  0.0)
( 3.0 5.0  0.0)
( 4.0 5.0  0.0)
( 5.0 5.0  0.0)
( 6.0 5.0  0.0)
( 7.0 5.0  0.0)
( 8.0 5.0  0.0)
( 9.0 5.0  0.0)
( 10.0 5.0  0.0)
( 0.0 0.0  1.0)
( 1.0 0.0  1.0)
( 2.0 0.0  1.0)
( 3.0 0.0  1.0)
( 4.0 0.0  1.0)
( 5.0 0.0  1.0)
( 6.0 0.0  1.0)
( 7.0 0.0  1.0)
( 8.0 0.0  1.0)
( 9.0 0.0  1.0)
( 10.0 0.0  1.0)
( 0.0 1.0  1.0)
( 1.0 1.0  1.0)
( 2.0 1.0  1.0)
( 3.0 1.0  1.0)
( 4.0 1.0  1.0)
( 5.0 1.0  1.0)
( 6.0 1.0  1.0)
( 7.0 1.0  1.0)
( 8.0 1.0  1.0)
( 9.0 1.0  1.0)
( 10.0 1.0  1.0)
( 0.0 2.0  1.0)
( 1.0 2.0  1.0)
( 2.0 2.0  1.0)
( 3.0 2.0  1.0)
( 4.0 2.0  1.0)
( 5.0 2.0  1.0)
( 6.0 2.0  1.0)
( 7.0 2.0  1.0)
( 8.0 2.0  1.0)
( 9.0 2.0  1.0)
( 10.0 2.0  1.0)
( 0.0 3.0  1.0)
( 1.0 3.0  1.0)
( 2.0 3.0  1.0)
( 3.0 3.0  1.0)
( 4.0 3.0  1.0)
( 5.0 3.0  1.0)
( 6.0 3.0  1.0)
( 7.0 3.0  1.0)
( 8.0 3.0  1.0)
( 9.0 3.0  1.0)
( 10.0 3.0  1.0)
( 0.0 4.0  1.0)
( 1.0 4.0  1.0)
( 2.0 4.0  1.0)
( 3.0 4.0  1.0)
( 4.0 4.0  1.0)
( 5.0 4.0  1.0)
( 6.0 4.0  1.0)
( 7.0 4.0  1.0)
( 8.0 4.0  1.0)
( 9.0 4.0  1.0)
( 10.0 4.0  1.0)
( 0.0 5.0  1.0)
( 1.0 5.0  1.0)
( 2.0 5.0  1.0)
( 3.0 5.0  1.0)
( 4.0 5.0  1.0)
( 5.0 5.0  1.0)
( 6.0 5.0  1.0)
( 7.0 5.0  1.0)
( 8.0 5.0  1.0)
( 9.0 5.0  1.0)
( 10.0 5.0  1.0)
( 0.0 0.0  2.0)
( 1.0 0.0  2.0)
( 2.0 0.0  2.0)
( 3.0 0.0  2.0)
( 4.0 0.0  2.0)
( 5.0 0.0  2.0)
( 6.0 0.0  2.0)
( 7.0 0.0  2.0)
( 8.0 0.0  2.0)
( 9.0 0.0  2.0)
( 10.0 0.0  2.0)
( 0.0 1.0  2.0)
( 1.0 1.0  2.0)
( 2.0 1.0  2.0)
( 3.0 1.0  2.0)
( 4.0 1.0  2.0)
( 5.0 1.0  2.0)
( 6.0 1.0  2.0)
( 7.0 1.0  2.0)
( 8.0 1.0  2.0)
( 9.0 1.0  2.0)
( 10.0 1.0  2.0)
( 0.0 2.0  2.0)
( 1.0 2.0  2.0)
( 2.0 2.0  2.0)
( 3.0 2.0  2.0)
( 4.0 2.0  2.0)
( 5.0 2.0  2.0)
( 6.0 2.0  2.0)
( 7.0 2.0  2.0)
( 8.0 2.0  2.0)
( 9.0 2.0  2.0)
( 10.0 2.0  2.0)
( 0.0 3.0  2.0)
( 1.0 3.0  2.0)
( 2.0 3.0  2.0)
( 3.0 3.0  2.0)
( 4.0 3.0  2.0)
( 5.0 3.0  2.0)
( 6.0 3.0  2.0)
( 7.0 3.0  2.0)
( 8.0 3.0  2.0)
( 9.0 3.0  2.0)
( 10.0 3.0  2.0)
( 0.0 4.0  2.0)
( 1.0 4.0  2.0)
( 2.0 4.0  2.0)
( 3.0 4.0  2.0)
( 4.0 4.0  2.0)
( 5.0 4.0  2.0)
( 6.0 4.0  2.0)
( 7.0 4.0  2.0)
( 8.0 4.0  2.0)
( 9.0 4.0  2.0)
( 10.0 4.0  2.0)
( 0.0 5.0  2.0)
( 1.0 5.0  2.0)
( 2.0 5.0  2.0)
( 3.0 5.0  2.0)
( 4.0 5.0  2.0)
( 5.0 5.0  2.0)
( 6.0 5.0  2.0)
( 7.0 5.0  2.0)
( 8.0 5.0  2.0)
( 9.0 5.0  2.0)
( 10.0 5.0  2.0)
( 0.0 0.0  3.0)
( 1.0 0.0  3.0)
( 2.0 0.0  3.0)
( 3.0 0.0  3.0)
( 4.0 0.0  3.0)
( 5.0 0.0  3.0)
( 6.0 0.0  3.0)
( 7.0 0.0  3.0)
( 8.0 0.0  3.0)
( 9.0 0.0  3.0)
( 10.0 0.0  3.0)
( 0.0 1.0  3.0)
( 1.0 1.0  3.0)
( 2.0 1.0  3.0)
( 3.0 1.0  3.0)
( 4.0 1.0  3.0)
( 5.0 1.0  3.0)
( 6.0 1.0  3.0)
( 7.0 1.0  3.0)
( 8.0 1.0  3.0)
( 9.0 1.0  3.0)
( 10.0 1.0  3.0)
( 0.0 2.0  3.0)
( 1.0 2.0  3.0)
( 2.0 2.0  3.0)
( 3.0 2.0  3.0)
( 4.0 2.0  3.0)
( 5.0 2.0  3.0)
( 6.0 2.0  3.0)
( 7.0 2.0  3.0)
( 8.0 2.0  3.0)
( 9.0 2.0  3.0)
( 10.0 2.0  3.0)
( 0.0 3.0  3.0)
( 1.0 3.0  3.0)
( 2.0 3.0  3.0)
( 3.0 3.0  3.0)
( 4.0 3.0  3.0)
( 5.0 3.0  3.0)
( 6.0 3.0  3.0)
( 7.0 3.0  3.0)
( 8.0 3.0  3.0)
( 9.0 3.0  3.0)
( 10.0 3.0  3.0)
( 0.0 4.0  3.0)
( 1.0 4.0  3.0)
( 2.0 4.0  3.0)
( 3.0 4.0  3.0)
( 4.0 4.0  3.0)
( 5.0 4.0  3.0)
( 6.0 4.0  3.0)
( 7.0 4.0  3.0)
( 8.0 4.0  3.0)
( 9.0 4.0  3.0)
( 10.0 4.0  3.0)
( 0.0 5.0  3.0)
( 1.0 5.0  3.0)
( 2.0 5.0  3.0)
( 3.0 5.0  3.0)
( 4.0 5.0  3.0)
( 5.0 5.0  3.0)
( 6.0 5.0  3.0)
( 7.0 5.0  3.0)
( 8.0 5.0  3.0)
( 9.0 5.0  3.0)
( 10.0 5.0  3.0)
( 0.0 0.0  4.0)
( 1.0 0.0  4.0)
( 2.0 0.0  4.0)
( 3.0 0.0  4.0)
( 4.0 0.0  4.0)
( 5.0 0.0  4.0)
( 6.0 0.0  4.0)
( 7.0 0.0  4.0)
( 8.0 0.0  4.0)
( 9.0 0.0  4.0)
( 10.0 0.0  4.0)
( 0.0 1.0  4.0)
( 1.0 1.0  4.0)
( 2.0 1.0  4.0)
( 3.0 1.0  4.0)
( 4.0 1.0  4.0)
( 5.0 1.0  4.0)
( 6.0 1.0  4.0)
( 7.0 1.0  4.0)
( 8.0 1.0  4.0)
( 9.0 1.0  4.0)
( 10.0 1.0  4.0)
( 0.0 2.0  4.0)
( 1.0 2.0  4.0)
( 2.0 2.0  4.0)
( 3.0 2.0  4.0)
( 4.0 2.0  4.0)
( 5.0 2.0  4.0)
( 6.0 2.0  4.0)
( 7.0 2.0  4.0)
( 8.0 2.0  4.0)
( 9.0 2.0  4.0)
( 10.0 2.0  4.0)
( 0.0 3.0  4.0)
( 1.0 3.0  4.0)
( 2.0 3.0  4.0)
( 3.0 3.0  4.0)
( 4.0 3.0  4.0)
( 5.0 3.0  4.0)
( 6.0 3.0  4.0)
( 7.0 3.0  4.0)
( 8.0 3.0  4.0)
( 9.0 3.0  4.0)
( 10.0 3.0  4.0)
( 0.0 4.0  4.0)
( 1.0 4.0  4.0)
( 2.0 4.0  4.0)
( 3.0 4.0  4.0)
( 4.0 4.0  4.0)
( 5.0 4.0  4.0)
( 6.0 4.0  4.0)
( 7.0 4.0  4.0)
( 8.0 4.0  4.0)
( 9.0 4.0  4.0)
( 10.0 4.0  4.0)
( 0.0 5.0  4.0)
( 1.0 5.0  4.0)
( 2.0 5.0  4.0)
( 3.0 5.0  4.0)
( 4.0 5.0  4.0)
( 5.0 5.0  4.0)
( 6.0 5.0  4.0)
( 7.0 5.0  4.0)
( 8.0 5.0  4.0)
( 9.0 5.0  4.0)
( 10.0 5.0  4.0)
( 0.0 0.0  5.0)
( 1.0 0.0  5.0)
( 2.0 0.0  5.0)
( 3.0 0.0  5.0)
( 4.0 0.0  5.0)
( 5.0 0.0  5.0)
( 6.0 0.0  5.0)
( 7.0 0.0  5.0)
( 8.0 0.0  5.0)
( 9.0 0.0  5.0)
( 10.0 0.0  5.0)
( 0.0 1.0  5.0)
( 1.0 1.0  5.0)
( 2.0 1.0  5.0)
( 3.0 1.0  5.0)
( 4.0 1.0  5.0)
( 5.0 1.0  5.0)
( 6.0 1.0  5.0)
( 7.0 1.0  5.0)
( 8.0 1.0  5.0)
( 9.0 1.0  5.0)
( 10.0 1.0  5.0)
( 0.0 2.0  5.0)
( 1.0 2.0  5.0)
( 2.0 2.0  5.0)
( 3.0 2.0  5.0)
( 4.0 2.0  5.0)
( 5.0 2.0  5.0)
( 6.0 2.0  5.0)
( 7.0 2.0  5.0)
( 8.0 2.0  5.0)
( 9.0 2.0  5.0)
( 10.0 2.0  5.0)
( 0.0 3.0  5.0)
( 1.0 3.0  5.0)
( 2.0 3.0  5.0)
( 3.0 3.0  5.0)
( 4.0 3.0  5.0)
( 5.0 3.0  5.0)
( 6.0 3.0  5.0)
( 7.0 3.0  5.0)
( 8.0 3.0  5.0)
( 9.0 3.0  5.0)
( 10.0 3.0  5.0)
( 0.0 4.0  5.0)
( 1.0 4.0  5.0)
( 2.0 4.0  5.0)
( 3.0 4.0  5.0)
( 4.0 4.0  5.0)
( 5.0 4.0  5.0)
( 6.0 4.0  5.0)
( 7.0 4.0  5.0)
( 8.0 4.0  5.0)
( 9.0 4.0  5.0)
( 10.0 4.0  5.0)
( 0.0 5.0  5.0)
( 1.0 5.0  5.0)
( 2.0 5.0  5.0)
( 3.0 5.0  5.0)
( 4.0 5.0  5.0)
( 5.0 5.0  5.0)
( 6.0 5.0  5.0)
( 7.0 5.0  5.0)
( 8.0 5.0  5.0)
( 9.0 5.0  5.0)
( 10.0 5.0  5.0)
);

// * * * * * * * * * * * * * * * * * * * * * * * * * * * * * * * * * * * * * //
blocks
(

 //block 0
hex (0 1 12 11 66 67 78 77 )
( 10 10 10 )
SimpleGrading (1 1 1)

 //block 1
hex (1 2 13 12 67 68 79 78 )
( 10 10 10 )
SimpleGrading (1 1 1)

 //block 2
hex (2 3 14 13 68 69 80 79 )
( 10 10 10 )
SimpleGrading (1 1 1)

 //block 3
hex (3 4 15 14 69 70 81 80 )
( 10 10 10 )
SimpleGrading (1 1 1)

 //block 4
hex (4 5 16 15 70 71 82 81 )
( 10 10 10 )
SimpleGrading (1 1 1)

 //block 5
hex (5 6 17 16 71 72 83 82 )
( 10 10 10 )
SimpleGrading (1 1 1)

 //block 6
hex (6 7 18 17 72 73 84 83 )
( 10 10 10 )
SimpleGrading (1 1 1)

 //block 7
hex (7 8 19 18 73 74 85 84 )
( 10 10 10 )
SimpleGrading (1 1 1)

 //block 8
hex (8 9 20 19 74 75 86 85 )
( 10 10 10 )
SimpleGrading (1 1 1)

 //block 9
hex (9 10 21 20 75 76 87 86 )
( 10 10 10 )
SimpleGrading (1 1 1)

 //block 10
hex (75 76 87 86 141 142 153 152 )
( 10 10 10 )
SimpleGrading (1 1 1)

 //block 11
hex (141 142 153 152 207 208 219 218 )
( 10 10 10 )
SimpleGrading (1 1 1)

 //block 12
hex (207 208 219 218 273 274 285 284 )
( 10 10 10 )
SimpleGrading (1 1 1)

 //block 13
hex (273 274 285 284 339 340 351 350 )
( 10 10 10 )
SimpleGrading (1 1 1)

 //block 14
hex (272 273 284 283 338 339 350 349 )
( 10 10 10 )
SimpleGrading (1 1 1)

 //block 15
hex (271 272 283 282 337 338 349 348 )
( 10 10 10 )
SimpleGrading (1 1 1)

 //block 16
hex (270 271 282 281 336 337 348 347 )
( 10 10 10 )
SimpleGrading (1 1 1)

 //block 17
hex (269 270 281 280 335 336 347 346 )
( 10 10 10 )
SimpleGrading (1 1 1)

 //block 18
hex (268 269 280 279 334 335 346 345 )
( 10 10 10 )
SimpleGrading (1 1 1)

 //block 19
hex (267 268 279 278 333 334 345 344 )
( 10 10 10 )
SimpleGrading (1 1 1)

 //block 20
hex (266 267 278 277 332 333 344 343 )
( 10 10 10 )
SimpleGrading (1 1 1)

 //block 21
hex (265 266 277 276 331 332 343 342 )
( 10 10 10 )
SimpleGrading (1 1 1)

 //block 22
hex (264 265 276 275 330 331 342 341 )
( 10 10 10 )
SimpleGrading (1 1 1)

 //block 23
hex (275 276 287 286 341 342 353 352 )
( 10 10 10 )
SimpleGrading (1 1 1)

 //block 24
hex (286 287 298 297 352 353 364 363 )
( 10 10 10 )
SimpleGrading (1 1 1)

 //block 25
hex (297 298 309 308 363 364 375 374 )
( 10 10 10 )
SimpleGrading (1 1 1)

 //block 26
hex (308 309 320 319 374 375 386 385 )
( 10 10 10 )
SimpleGrading (1 1 1)

 //block 27
hex (242 243 254 253 308 309 320 319 )
( 10 10 10 )
SimpleGrading (1 1 1)

 //block 28
hex (176 177 188 187 242 243 254 253 )
( 10 10 10 )
SimpleGrading (1 1 1)

 //block 29
hex (110 111 122 121 176 177 188 187 )
( 10 10 10 )
SimpleGrading (1 1 1)

 //block 30
hex (44 45 56 55 110 111 122 121 )
( 10 10 10 )
SimpleGrading (1 1 1)

 //block 31
hex (33 34 45 44 99 100 111 110 )
( 10 10 10 )
SimpleGrading (1 1 1)

 //block 32
hex (22 23 34 33 88 89 100 99 )
( 10 10 10 )
SimpleGrading (1 1 1)

 //block 33
hex (11 12 23 22 77 78 89 88 )
( 10 10 10 )
SimpleGrading (1 1 1)
);

// * * * * * * * * * * * * * * * * * * * * * * * * * * * * * * * * * * * * * //
defaultPatch
{   type wall;}

patches
(
);
