/*--------------------------------*- C++ -*----------------------------------*\
| =========                 |                                                 |
| \\      /  F ield         | OpenFOAM: The Open Source CFD Toolbox           |
|  \\    /   O peration     | Version:  v2306                                 |
|   \\  /    A nd           | Website:  www.openfoam.com                      |
|    \\/     M anipulation  |                                                 |
\*---------------------------------------------------------------------------*/
FoamFile
{
    version     2.0;
    format      ascii;
    class       dictionary;
    object      topoSetDict;
}
// * * * * * * * * * * * * * * * * * * * * * * * * * * * * * * * * * * * * * //


R_hole  0.055;

actions
(
    {
        name    inlet1;
        type    faceSet;
        action  new;
        source  cylinderToFace;
        p1       (0 -0.001 0);
        p2       (0  0.001 0);
        radius     $R_hole;
    }
    {
        name    inlet2;
        type    faceSet;
        action  new;
        source  faceToFace;
        set inlet1;
    }
    {   
        name    faceBoundary;
        type    faceSet;
        action  new;
        source  boundaryToFace;
    }
    {
        name    inlet1;
        type    faceSet;
        action  delete;
        source  faceToFace;
        sourceInfo
        {
        set faceBoundary;
        }
    }
    {
        name    inlet2;
        type    faceSet;
        action  delete;
        source  faceToFace;
        sourceInfo
        {
        set inlet1;
        }
    }
);


// ************************************************************************* //
