FoamFile
{
    version     2.0;
    format      ascii;
    class       dictionary;
    object      blockMeshDict;
}

R1 52.0;
R2 89.0;
R3 92.0;
R4 104.5;
R5 109.5;
R6 119.5;
R7 124.5;
R8 134.5;
R9 139.5;
R10 370.0;

mR1 -52.0;
mR2 -89.0;
mR3 -92.0;
mR4 -104.5;
mR5 -109.5;
mR6 -119.5;
mR7 -124.5;
mR8 -134.5;
mR9 -139.5;
mR10 -370.0;

L1 430.0;
L2 284.5;
L3 210.5;
L4 80.0;
L5 -45.0;
L6 -50.0;
L7 -70.92;
L8 -86.0;
L9 -110.0;
L10 -370.0;

CW1 26.0;
mCW1 -26.0;
C11 36.76955262170048;
mC11 -36.76955262170048;
C21 36.76955262170047;
mC21 -36.76955262170047;

CW2 44.5;
mCW2 -44.5;
C12 62.93250352560273;
mC12 -62.93250352560273;
C22 62.932503525602726;
mC22 -62.932503525602726;

CW3 46.0;
mCW3 -46.0;
C13 65.05382386916237;
mC13 -65.05382386916237;
C23 65.05382386916237;
mC23 -65.05382386916237;

CW4 52.25;
mCW4 -52.25;
C14 73.89265863399422;
mC14 -73.89265863399422;
C24 73.89265863399422;
mC24 -73.89265863399422;

CW5 54.75;
mCW5 -54.75;
C15 77.42819253992695;
mC15 -77.42819253992695;
C25 77.42819253992695;
mC25 -77.42819253992695;

CW6 59.75;
mCW6 -59.75;
C16 84.49926035179243;
mC16 -84.49926035179243;
C26 84.49926035179242;
mC26 -84.49926035179242;

CW7 62.25;
mCW7 -62.25;
C17 88.03479425772517;
mC17 -88.03479425772517;
C27 88.03479425772515;
mC27 -88.03479425772515;

CW8 67.25;
mCW8 -67.25;
C18 95.10586206959064;
mC18 -95.10586206959064;
C28 95.10586206959063;
mC28 -95.10586206959063;

CW9 69.75;
mCW9 -69.75;
C19 98.64139597552338;
mC19 -98.64139597552338;
C29 98.64139597552337;
mC29 -98.64139597552337;

CW10 185.0;
mCW10 -185.0;
C110 261.6295090390226;
mC110 -261.6295090390226;
C210 261.62950903902254;
mC210 -261.62950903902254;

NR1 6;
NR2 9;
NR3 1;
NR4 7;
NR5 7;
NR6 16;
NR7 8;
NR8 16;
NR9 8;
NR10 25;

NS1 12;

NVert1 12;
NVert2 6;
NVert3 11;
NVert4 22;
NVert5 2;
NVert6 8;
NVert7 8;
NVert8 20;
NVert9 54;

vertices
(
     ($mCW1  $mCW1  $L1)  //0
     ( $CW1  $mCW1  $L1)
     ( $CW1   $CW1  $L1)
     ($mCW1   $CW1  $L1)

     ($mCW1  $mCW1  $L2)  //4
     ( $CW1  $mCW1  $L2)
     ( $CW1   $CW1  $L2)
     ($mCW1   $CW1  $L2)

     ($mCW1  $mCW1  $L3)  //8
     ( $CW1  $mCW1  $L3)
     ( $CW1   $CW1  $L3)
     ($mCW1   $CW1  $L3)

     ($mCW1  $mCW1  $L4)  //12
     ( $CW1  $mCW1  $L4)
     ( $CW1   $CW1  $L4)
     ($mCW1   $CW1  $L4)

     ($mCW1  $mCW1  $L5)  //16
     ( $CW1  $mCW1  $L5)
     ( $CW1   $CW1  $L5)
     ($mCW1   $CW1  $L5)

     ($mCW1  $mCW1  $L6)  //20
     ( $CW1  $mCW1  $L6)
     ( $CW1   $CW1  $L6)
     ($mCW1   $CW1  $L6)

     ($mCW1  $mCW1  $L7)  //24
     ( $CW1  $mCW1  $L7)
     ( $CW1   $CW1  $L7)
     ($mCW1   $CW1  $L7)

     ($mCW1  $mCW1  $L8)  //28
     ( $CW1  $mCW1  $L8)
     ( $CW1   $CW1  $L8)
     ($mCW1   $CW1  $L8)

     ($mCW1  $mCW1  $L9)  //32
     ( $CW1  $mCW1  $L9)
     ( $CW1   $CW1  $L9)
     ($mCW1   $CW1  $L9)

     ($mCW1  $mCW1  $L10)  //36
     ( $CW1  $mCW1  $L10)
     ( $CW1   $CW1  $L10)
     ($mCW1   $CW1  $L10)

    ($mC11   $mC21   $L1)  //40
    ( $C11   $mC21   $L1)
    ( $C11    $C21   $L1)
    ($mC11    $C21   $L1)

    ($mC11   $mC21   $L2)  //44
    ( $C11   $mC21   $L2)
    ( $C11    $C21   $L2)
    ($mC11    $C21   $L2)

    ($mC11   $mC21   $L3)  //48
    ( $C11   $mC21   $L3)
    ( $C11    $C21   $L3)
    ($mC11    $C21   $L3)

    ($mC11   $mC21   $L4)  //52
    ( $C11   $mC21   $L4)
    ( $C11    $C21   $L4)
    ($mC11    $C21   $L4)

    ($mC11   $mC21   $L5)  //56
    ( $C11   $mC21   $L5)
    ( $C11    $C21   $L5)
    ($mC11    $C21   $L5)

    ($mC11   $mC21   $L6)  //60
    ( $C11   $mC21   $L6)
    ( $C11    $C21   $L6)
    ($mC11    $C21   $L6)

    ($mC11   $mC21   $L7)  //64
    ( $C11   $mC21   $L7)
    ( $C11    $C21   $L7)
    ($mC11    $C21   $L7)

    ($mC11   $mC21   $L8)  //68
    ( $C11   $mC21   $L8)
    ( $C11    $C21   $L8)
    ($mC11    $C21   $L8)

    ($mC11   $mC21   $L9)  //72
    ( $C11   $mC21   $L9)
    ( $C11    $C21   $L9)
    ($mC11    $C21   $L9)

    ($mC11   $mC21   $L10)  //76
    ( $C11   $mC21   $L10)
    ( $C11    $C21   $L10)
    ($mC11    $C21   $L10)

    ($mC12   $mC22   $L1)  //80
    ( $C12   $mC22   $L1)
    ( $C12    $C22   $L1)
    ($mC12    $C22   $L1)

    ($mC12   $mC22   $L2)  //84
    ( $C12   $mC22   $L2)
    ( $C12    $C22   $L2)
    ($mC12    $C22   $L2)

    ($mC12   $mC22   $L3)  //88
    ( $C12   $mC22   $L3)
    ( $C12    $C22   $L3)
    ($mC12    $C22   $L3)

    ($mC12   $mC22   $L4)  //92
    ( $C12   $mC22   $L4)
    ( $C12    $C22   $L4)
    ($mC12    $C22   $L4)

    ($mC12   $mC22   $L5)  //96
    ( $C12   $mC22   $L5)
    ( $C12    $C22   $L5)
    ($mC12    $C22   $L5)

    ($mC12   $mC22   $L6)  //100
    ( $C12   $mC22   $L6)
    ( $C12    $C22   $L6)
    ($mC12    $C22   $L6)

    ($mC12   $mC22   $L7)  //104
    ( $C12   $mC22   $L7)
    ( $C12    $C22   $L7)
    ($mC12    $C22   $L7)

    ($mC12   $mC22   $L8)  //108
    ( $C12   $mC22   $L8)
    ( $C12    $C22   $L8)
    ($mC12    $C22   $L8)

    ($mC12   $mC22   $L9)  //112
    ( $C12   $mC22   $L9)
    ( $C12    $C22   $L9)
    ($mC12    $C22   $L9)

    ($mC12   $mC22   $L10)  //116
    ( $C12   $mC22   $L10)
    ( $C12    $C22   $L10)
    ($mC12    $C22   $L10)

    ($mC13   $mC23   $L1)  //120
    ( $C13   $mC23   $L1)
    ( $C13    $C23   $L1)
    ($mC13    $C23   $L1)

    ($mC13   $mC23   $L2)  //124
    ( $C13   $mC23   $L2)
    ( $C13    $C23   $L2)
    ($mC13    $C23   $L2)

    ($mC13   $mC23   $L3)  //128
    ( $C13   $mC23   $L3)
    ( $C13    $C23   $L3)
    ($mC13    $C23   $L3)

    ($mC13   $mC23   $L4)  //132
    ( $C13   $mC23   $L4)
    ( $C13    $C23   $L4)
    ($mC13    $C23   $L4)

    ($mC13   $mC23   $L5)  //136
    ( $C13   $mC23   $L5)
    ( $C13    $C23   $L5)
    ($mC13    $C23   $L5)

    ($mC13   $mC23   $L6)  //140
    ( $C13   $mC23   $L6)
    ( $C13    $C23   $L6)
    ($mC13    $C23   $L6)

    ($mC13   $mC23   $L7)  //144
    ( $C13   $mC23   $L7)
    ( $C13    $C23   $L7)
    ($mC13    $C23   $L7)

    ($mC13   $mC23   $L8)  //148
    ( $C13   $mC23   $L8)
    ( $C13    $C23   $L8)
    ($mC13    $C23   $L8)

    ($mC13   $mC23   $L9)  //152
    ( $C13   $mC23   $L9)
    ( $C13    $C23   $L9)
    ($mC13    $C23   $L9)

    ($mC13   $mC23   $L10)  //156
    ( $C13   $mC23   $L10)
    ( $C13    $C23   $L10)
    ($mC13    $C23   $L10)

    ($mC14   $mC24   $L1)  //160
    ( $C14   $mC24   $L1)
    ( $C14    $C24   $L1)
    ($mC14    $C24   $L1)

    ($mC14   $mC24   $L2)  //164
    ( $C14   $mC24   $L2)
    ( $C14    $C24   $L2)
    ($mC14    $C24   $L2)

    ($mC14   $mC24   $L3)  //168
    ( $C14   $mC24   $L3)
    ( $C14    $C24   $L3)
    ($mC14    $C24   $L3)

    ($mC14   $mC24   $L4)  //172
    ( $C14   $mC24   $L4)
    ( $C14    $C24   $L4)
    ($mC14    $C24   $L4)

    ($mC14   $mC24   $L5)  //176
    ( $C14   $mC24   $L5)
    ( $C14    $C24   $L5)
    ($mC14    $C24   $L5)

    ($mC14   $mC24   $L6)  //180
    ( $C14   $mC24   $L6)
    ( $C14    $C24   $L6)
    ($mC14    $C24   $L6)

    ($mC14   $mC24   $L7)  //184
    ( $C14   $mC24   $L7)
    ( $C14    $C24   $L7)
    ($mC14    $C24   $L7)

    ($mC14   $mC24   $L8)  //188
    ( $C14   $mC24   $L8)
    ( $C14    $C24   $L8)
    ($mC14    $C24   $L8)

    ($mC14   $mC24   $L9)  //192
    ( $C14   $mC24   $L9)
    ( $C14    $C24   $L9)
    ($mC14    $C24   $L9)

    ($mC14   $mC24   $L10)  //196
    ( $C14   $mC24   $L10)
    ( $C14    $C24   $L10)
    ($mC14    $C24   $L10)

    ($mC15   $mC25   $L1)  //200
    ( $C15   $mC25   $L1)
    ( $C15    $C25   $L1)
    ($mC15    $C25   $L1)

    ($mC15   $mC25   $L2)  //204
    ( $C15   $mC25   $L2)
    ( $C15    $C25   $L2)
    ($mC15    $C25   $L2)

    ($mC15   $mC25   $L3)  //208
    ( $C15   $mC25   $L3)
    ( $C15    $C25   $L3)
    ($mC15    $C25   $L3)

    ($mC15   $mC25   $L4)  //212
    ( $C15   $mC25   $L4)
    ( $C15    $C25   $L4)
    ($mC15    $C25   $L4)

    ($mC15   $mC25   $L5)  //216
    ( $C15   $mC25   $L5)
    ( $C15    $C25   $L5)
    ($mC15    $C25   $L5)

    ($mC15   $mC25   $L6)  //220
    ( $C15   $mC25   $L6)
    ( $C15    $C25   $L6)
    ($mC15    $C25   $L6)

    ($mC15   $mC25   $L7)  //224
    ( $C15   $mC25   $L7)
    ( $C15    $C25   $L7)
    ($mC15    $C25   $L7)

    ($mC15   $mC25   $L8)  //228
    ( $C15   $mC25   $L8)
    ( $C15    $C25   $L8)
    ($mC15    $C25   $L8)

    ($mC15   $mC25   $L9)  //232
    ( $C15   $mC25   $L9)
    ( $C15    $C25   $L9)
    ($mC15    $C25   $L9)

    ($mC15   $mC25   $L10)  //236
    ( $C15   $mC25   $L10)
    ( $C15    $C25   $L10)
    ($mC15    $C25   $L10)

    ($mC16   $mC26   $L1)  //240
    ( $C16   $mC26   $L1)
    ( $C16    $C26   $L1)
    ($mC16    $C26   $L1)

    ($mC16   $mC26   $L2)  //244
    ( $C16   $mC26   $L2)
    ( $C16    $C26   $L2)
    ($mC16    $C26   $L2)

    ($mC16   $mC26   $L3)  //248
    ( $C16   $mC26   $L3)
    ( $C16    $C26   $L3)
    ($mC16    $C26   $L3)

    ($mC16   $mC26   $L4)  //252
    ( $C16   $mC26   $L4)
    ( $C16    $C26   $L4)
    ($mC16    $C26   $L4)

    ($mC16   $mC26   $L5)  //256
    ( $C16   $mC26   $L5)
    ( $C16    $C26   $L5)
    ($mC16    $C26   $L5)

    ($mC16   $mC26   $L6)  //260
    ( $C16   $mC26   $L6)
    ( $C16    $C26   $L6)
    ($mC16    $C26   $L6)

    ($mC16   $mC26   $L7)  //264
    ( $C16   $mC26   $L7)
    ( $C16    $C26   $L7)
    ($mC16    $C26   $L7)

    ($mC16   $mC26   $L8)  //268
    ( $C16   $mC26   $L8)
    ( $C16    $C26   $L8)
    ($mC16    $C26   $L8)

    ($mC16   $mC26   $L9)  //272
    ( $C16   $mC26   $L9)
    ( $C16    $C26   $L9)
    ($mC16    $C26   $L9)

    ($mC16   $mC26   $L10)  //276
    ( $C16   $mC26   $L10)
    ( $C16    $C26   $L10)
    ($mC16    $C26   $L10)

    ($mC17   $mC27   $L1)  //280
    ( $C17   $mC27   $L1)
    ( $C17    $C27   $L1)
    ($mC17    $C27   $L1)

    ($mC17   $mC27   $L2)  //284
    ( $C17   $mC27   $L2)
    ( $C17    $C27   $L2)
    ($mC17    $C27   $L2)

    ($mC17   $mC27   $L3)  //288
    ( $C17   $mC27   $L3)
    ( $C17    $C27   $L3)
    ($mC17    $C27   $L3)

    ($mC17   $mC27   $L4)  //292
    ( $C17   $mC27   $L4)
    ( $C17    $C27   $L4)
    ($mC17    $C27   $L4)

    ($mC17   $mC27   $L5)  //296
    ( $C17   $mC27   $L5)
    ( $C17    $C27   $L5)
    ($mC17    $C27   $L5)

    ($mC17   $mC27   $L6)  //300
    ( $C17   $mC27   $L6)
    ( $C17    $C27   $L6)
    ($mC17    $C27   $L6)

    ($mC17   $mC27   $L7)  //304
    ( $C17   $mC27   $L7)
    ( $C17    $C27   $L7)
    ($mC17    $C27   $L7)

    ($mC17   $mC27   $L8)  //308
    ( $C17   $mC27   $L8)
    ( $C17    $C27   $L8)
    ($mC17    $C27   $L8)

    ($mC17   $mC27   $L9)  //312
    ( $C17   $mC27   $L9)
    ( $C17    $C27   $L9)
    ($mC17    $C27   $L9)

    ($mC17   $mC27   $L10)  //316
    ( $C17   $mC27   $L10)
    ( $C17    $C27   $L10)
    ($mC17    $C27   $L10)

    ($mC18   $mC28   $L1)  //320
    ( $C18   $mC28   $L1)
    ( $C18    $C28   $L1)
    ($mC18    $C28   $L1)

    ($mC18   $mC28   $L2)  //324
    ( $C18   $mC28   $L2)
    ( $C18    $C28   $L2)
    ($mC18    $C28   $L2)

    ($mC18   $mC28   $L3)  //328
    ( $C18   $mC28   $L3)
    ( $C18    $C28   $L3)
    ($mC18    $C28   $L3)

    ($mC18   $mC28   $L4)  //332
    ( $C18   $mC28   $L4)
    ( $C18    $C28   $L4)
    ($mC18    $C28   $L4)

    ($mC18   $mC28   $L5)  //336
    ( $C18   $mC28   $L5)
    ( $C18    $C28   $L5)
    ($mC18    $C28   $L5)

    ($mC18   $mC28   $L6)  //340
    ( $C18   $mC28   $L6)
    ( $C18    $C28   $L6)
    ($mC18    $C28   $L6)

    ($mC18   $mC28   $L7)  //344
    ( $C18   $mC28   $L7)
    ( $C18    $C28   $L7)
    ($mC18    $C28   $L7)

    ($mC18   $mC28   $L8)  //348
    ( $C18   $mC28   $L8)
    ( $C18    $C28   $L8)
    ($mC18    $C28   $L8)

    ($mC18   $mC28   $L9)  //352
    ( $C18   $mC28   $L9)
    ( $C18    $C28   $L9)
    ($mC18    $C28   $L9)

    ($mC18   $mC28   $L10)  //356
    ( $C18   $mC28   $L10)
    ( $C18    $C28   $L10)
    ($mC18    $C28   $L10)

    ($mC19   $mC29   $L1)  //360
    ( $C19   $mC29   $L1)
    ( $C19    $C29   $L1)
    ($mC19    $C29   $L1)

    ($mC19   $mC29   $L2)  //364
    ( $C19   $mC29   $L2)
    ( $C19    $C29   $L2)
    ($mC19    $C29   $L2)

    ($mC19   $mC29   $L3)  //368
    ( $C19   $mC29   $L3)
    ( $C19    $C29   $L3)
    ($mC19    $C29   $L3)

    ($mC19   $mC29   $L4)  //372
    ( $C19   $mC29   $L4)
    ( $C19    $C29   $L4)
    ($mC19    $C29   $L4)

    ($mC19   $mC29   $L5)  //376
    ( $C19   $mC29   $L5)
    ( $C19    $C29   $L5)
    ($mC19    $C29   $L5)

    ($mC19   $mC29   $L6)  //380
    ( $C19   $mC29   $L6)
    ( $C19    $C29   $L6)
    ($mC19    $C29   $L6)

    ($mC19   $mC29   $L7)  //384
    ( $C19   $mC29   $L7)
    ( $C19    $C29   $L7)
    ($mC19    $C29   $L7)

    ($mC19   $mC29   $L8)  //388
    ( $C19   $mC29   $L8)
    ( $C19    $C29   $L8)
    ($mC19    $C29   $L8)

    ($mC19   $mC29   $L9)  //392
    ( $C19   $mC29   $L9)
    ( $C19    $C29   $L9)
    ($mC19    $C29   $L9)

    ($mC19   $mC29   $L10)  //396
    ( $C19   $mC29   $L10)
    ( $C19    $C29   $L10)
    ($mC19    $C29   $L10)

    ($mC110   $mC210   $L1)  //400
    ( $C110   $mC210   $L1)
    ( $C110    $C210   $L1)
    ($mC110    $C210   $L1)

    ($mC110   $mC210   $L2)  //404
    ( $C110   $mC210   $L2)
    ( $C110    $C210   $L2)
    ($mC110    $C210   $L2)

    ($mC110   $mC210   $L3)  //408
    ( $C110   $mC210   $L3)
    ( $C110    $C210   $L3)
    ($mC110    $C210   $L3)

    ($mC110   $mC210   $L4)  //412
    ( $C110   $mC210   $L4)
    ( $C110    $C210   $L4)
    ($mC110    $C210   $L4)

    ($mC110   $mC210   $L5)  //416
    ( $C110   $mC210   $L5)
    ( $C110    $C210   $L5)
    ($mC110    $C210   $L5)

    ($mC110   $mC210   $L6)  //420
    ( $C110   $mC210   $L6)
    ( $C110    $C210   $L6)
    ($mC110    $C210   $L6)

    ($mC110   $mC210   $L7)  //424
    ( $C110   $mC210   $L7)
    ( $C110    $C210   $L7)
    ($mC110    $C210   $L7)

    ($mC110   $mC210   $L8)  //428
    ( $C110   $mC210   $L8)
    ( $C110    $C210   $L8)
    ($mC110    $C210   $L8)

    ($mC110   $mC210   $L9)  //432
    ( $C110   $mC210   $L9)
    ( $C110    $C210   $L9)
    ($mC110    $C210   $L9)

    ($mC110   $mC210   $L10)  //436
    ( $C110   $mC210   $L10)
    ( $C110    $C210   $L10)
    ($mC110    $C210   $L10)

);

blocks
(
     hex (4 5 6 7 0 1 2 3) ($NS1 $NS1 $NVert1) simpleGrading (1 1 1.0)
     hex (8 9 10 11 4 5 6 7) ($NS1 $NS1 $NVert2) simpleGrading (1 1 1.0)
     hex (12 13 14 15 8 9 10 11) ($NS1 $NS1 $NVert3) simpleGrading (1 1 1.0)
     hex (16 17 18 19 12 13 14 15) ($NS1 $NS1 $NVert4) simpleGrading (1 1 5.004782930452105)
//     hex (20 21 22 23 16 17 18 19) ($NS1 $NS1 $NVert5) simpleGrading (1 1 1.0)
//     hex (24 25 26 27 20 21 22 23) ($NS1 $NS1 $NVert6) simpleGrading (1 1 1.03261053490841)
//     hex (28 29 30 31 24 25 26 27) ($NS1 $NS1 $NVert7) simpleGrading (1 1 2.140093726301576)
//     hex (32 33 34 35 28 29 30 31) ($NS1 $NS1 $NVert8) simpleGrading (1 1 1.0)
//     hex (36 37 38 39 32 33 34 35) ($NS1 $NS1 $NVert9) simpleGrading (1 1 0.09928280838458875)

     hex (4 44 45 5 0 40 41 1)  ($NR1 $NS1 $NVert1) simpleGrading (1.0 1 1.0)
     hex (5 45 46 6 1 41 42 2)  ($NR1 $NS1 $NVert1) simpleGrading (1.0 1 1.0)
     hex (6 46 47 7 2 42 43 3)  ($NR1 $NS1 $NVert1) simpleGrading (1.0 1 1.0)
     hex (7 47 44 4 3 43 40 0)  ($NR1 $NS1 $NVert1) simpleGrading (1.0 1 1.0)

     hex (8 48 49 9 4 44 45 5)  ($NR1 $NS1 $NVert2) simpleGrading (1.0 1 1.0)
     hex (9 49 50 10 5 45 46 6)  ($NR1 $NS1 $NVert2) simpleGrading (1.0 1 1.0)
     hex (10 50 51 11 6 46 47 7)  ($NR1 $NS1 $NVert2) simpleGrading (1.0 1 1.0)
     hex (11 51 48 8 7 47 44 4)  ($NR1 $NS1 $NVert2) simpleGrading (1.0 1 1.0)

     hex (12 52 53 13 8 48 49 9)  ($NR1 $NS1 $NVert3) simpleGrading (1.0 1 1.0)
     hex (13 53 54 14 9 49 50 10)  ($NR1 $NS1 $NVert3) simpleGrading (1.0 1 1.0)
     hex (14 54 55 15 10 50 51 11)  ($NR1 $NS1 $NVert3) simpleGrading (1.0 1 1.0)
     hex (15 55 52 12 11 51 48 8)  ($NR1 $NS1 $NVert3) simpleGrading (1.0 1 1.0)

     hex (16 56 57 17 12 52 53 13)  ($NR1 $NS1 $NVert4) simpleGrading (1.0 1 5.004782930452105)
     hex (17 57 58 18 13 53 54 14)  ($NR1 $NS1 $NVert4) simpleGrading (1.0 1 5.004782930452105)
     hex (18 58 59 19 14 54 55 15)  ($NR1 $NS1 $NVert4) simpleGrading (1.0 1 5.004782930452105)
     hex (19 59 56 16 15 55 52 12)  ($NR1 $NS1 $NVert4) simpleGrading (1.0 1 5.004782930452105)

//     hex (20 60 61 21 16 56 57 17)  ($NR1 $NS1 $NVert5) simpleGrading (1.0 1 1.0)
//     hex (21 61 62 22 17 57 58 18)  ($NR1 $NS1 $NVert5) simpleGrading (1.0 1 1.0)
//     hex (22 62 63 23 18 58 59 19)  ($NR1 $NS1 $NVert5) simpleGrading (1.0 1 1.0)
//     hex (23 63 60 20 19 59 56 16)  ($NR1 $NS1 $NVert5) simpleGrading (1.0 1 1.0)

//     hex (24 64 65 25 20 60 61 21)  ($NR1 $NS1 $NVert6) simpleGrading (1.0 1 1.03261053490841)
//     hex (25 65 66 26 21 61 62 22)  ($NR1 $NS1 $NVert6) simpleGrading (1.0 1 1.03261053490841)
//     hex (26 66 67 27 22 62 63 23)  ($NR1 $NS1 $NVert6) simpleGrading (1.0 1 1.03261053490841)
//     hex (27 67 64 24 23 63 60 20)  ($NR1 $NS1 $NVert6) simpleGrading (1.0 1 1.03261053490841)

//     hex (28 68 69 29 24 64 65 25)  ($NR1 $NS1 $NVert7) simpleGrading (1.0 1 2.140093726301576)
//     hex (29 69 70 30 25 65 66 26)  ($NR1 $NS1 $NVert7) simpleGrading (1.0 1 2.140093726301576)
//     hex (30 70 71 31 26 66 67 27)  ($NR1 $NS1 $NVert7) simpleGrading (1.0 1 2.140093726301576)
//     hex (31 71 68 28 27 67 64 24)  ($NR1 $NS1 $NVert7) simpleGrading (1.0 1 2.140093726301576)

//     hex (32 72 73 33 28 68 69 29)  ($NR1 $NS1 $NVert8) simpleGrading (1.0 1 1.0)
//     hex (33 73 74 34 29 69 70 30)  ($NR1 $NS1 $NVert8) simpleGrading (1.0 1 1.0)
//     hex (34 74 75 35 30 70 71 31)  ($NR1 $NS1 $NVert8) simpleGrading (1.0 1 1.0)
//     hex (35 75 72 32 31 71 68 28)  ($NR1 $NS1 $NVert8) simpleGrading (1.0 1 1.0)

//     hex (36 76 77 37 32 72 73 33)  ($NR1 $NS1 $NVert9) simpleGrading (1.0 1 0.09928280838458875)
//     hex (37 77 78 38 33 73 74 34)  ($NR1 $NS1 $NVert9) simpleGrading (1.0 1 0.09928280838458875)
//     hex (38 78 79 39 34 74 75 35)  ($NR1 $NS1 $NVert9) simpleGrading (1.0 1 0.09928280838458875)
//     hex (39 79 76 36 35 75 72 32)  ($NR1 $NS1 $NVert9) simpleGrading (1.0 1 0.09928280838458875)

     hex (44 84 85 45 40 80 81 41)  ($NR2 $NS1 $NVert1) simpleGrading (1.0 1 1.0)
     hex (45 85 86 46 41 81 82 42)  ($NR2 $NS1 $NVert1) simpleGrading (1.0 1 1.0)
     hex (46 86 87 47 42 82 83 43)  ($NR2 $NS1 $NVert1) simpleGrading (1.0 1 1.0)
     hex (47 87 84 44 43 83 80 40)  ($NR2 $NS1 $NVert1) simpleGrading (1.0 1 1.0)

//     hex (48 88 89 49 44 84 85 45)  ($NR2 $NS1 $NVert2) simpleGrading (1.0 1 1.0)
//     hex (49 89 90 50 45 85 86 46)  ($NR2 $NS1 $NVert2) simpleGrading (1.0 1 1.0)
//     hex (50 90 91 51 46 86 87 47)  ($NR2 $NS1 $NVert2) simpleGrading (1.0 1 1.0)
//     hex (51 91 88 48 47 87 84 44)  ($NR2 $NS1 $NVert2) simpleGrading (1.0 1 1.0)

     hex (52 92 93 53 48 88 89 49)  ($NR2 $NS1 $NVert3) simpleGrading (1.0 1 1.0)
     hex (53 93 94 54 49 89 90 50)  ($NR2 $NS1 $NVert3) simpleGrading (1.0 1 1.0)
     hex (54 94 95 55 50 90 91 51)  ($NR2 $NS1 $NVert3) simpleGrading (1.0 1 1.0)
     hex (55 95 92 52 51 91 88 48)  ($NR2 $NS1 $NVert3) simpleGrading (1.0 1 1.0)

     hex (56 96 97 57 52 92 93 53)  ($NR2 $NS1 $NVert4) simpleGrading (1.0 1 5.004782930452105)
     hex (57 97 98 58 53 93 94 54)  ($NR2 $NS1 $NVert4) simpleGrading (1.0 1 5.004782930452105)
     hex (58 98 99 59 54 94 95 55)  ($NR2 $NS1 $NVert4) simpleGrading (1.0 1 5.004782930452105)
     hex (59 99 96 56 55 95 92 52)  ($NR2 $NS1 $NVert4) simpleGrading (1.0 1 5.004782930452105)

//     hex (60 100 101 61 56 96 97 57)  ($NR2 $NS1 $NVert5) simpleGrading (1.0 1 1.0)
//     hex (61 101 102 62 57 97 98 58)  ($NR2 $NS1 $NVert5) simpleGrading (1.0 1 1.0)
//     hex (62 102 103 63 58 98 99 59)  ($NR2 $NS1 $NVert5) simpleGrading (1.0 1 1.0)
//     hex (63 103 100 60 59 99 96 56)  ($NR2 $NS1 $NVert5) simpleGrading (1.0 1 1.0)

//     hex (64 104 105 65 60 100 101 61)  ($NR2 $NS1 $NVert6) simpleGrading (1.0 1 1.03261053490841)
//     hex (65 105 106 66 61 101 102 62)  ($NR2 $NS1 $NVert6) simpleGrading (1.0 1 1.03261053490841)
//     hex (66 106 107 67 62 102 103 63)  ($NR2 $NS1 $NVert6) simpleGrading (1.0 1 1.03261053490841)
//     hex (67 107 104 64 63 103 100 60)  ($NR2 $NS1 $NVert6) simpleGrading (1.0 1 1.03261053490841)

     hex (68 108 109 69 64 104 105 65)  ($NR2 $NS1 $NVert7) simpleGrading (1.0 1 2.140093726301576)
     hex (69 109 110 70 65 105 106 66)  ($NR2 $NS1 $NVert7) simpleGrading (1.0 1 2.140093726301576)
     hex (70 110 111 71 66 106 107 67)  ($NR2 $NS1 $NVert7) simpleGrading (1.0 1 2.140093726301576)
     hex (71 111 108 68 67 107 104 64)  ($NR2 $NS1 $NVert7) simpleGrading (1.0 1 2.140093726301576)

     hex (72 112 113 73 68 108 109 69)  ($NR2 $NS1 $NVert8) simpleGrading (1.0 1 1.0)
     hex (73 113 114 74 69 109 110 70)  ($NR2 $NS1 $NVert8) simpleGrading (1.0 1 1.0)
     hex (74 114 115 75 70 110 111 71)  ($NR2 $NS1 $NVert8) simpleGrading (1.0 1 1.0)
     hex (75 115 112 72 71 111 108 68)  ($NR2 $NS1 $NVert8) simpleGrading (1.0 1 1.0)

     hex (76 116 117 77 72 112 113 73)  ($NR2 $NS1 $NVert9) simpleGrading (1.0 1 0.09928280838458875)
     hex (77 117 118 78 73 113 114 74)  ($NR2 $NS1 $NVert9) simpleGrading (1.0 1 0.09928280838458875)
     hex (78 118 119 79 74 114 115 75)  ($NR2 $NS1 $NVert9) simpleGrading (1.0 1 0.09928280838458875)
     hex (79 119 116 76 75 115 112 72)  ($NR2 $NS1 $NVert9) simpleGrading (1.0 1 0.09928280838458875)

     hex (84 124 125 85 80 120 121 81)  ($NR3 $NS1 $NVert1) simpleGrading (1.0 1 1.0)
     hex (85 125 126 86 81 121 122 82)  ($NR3 $NS1 $NVert1) simpleGrading (1.0 1 1.0)
     hex (86 126 127 87 82 122 123 83)  ($NR3 $NS1 $NVert1) simpleGrading (1.0 1 1.0)
     hex (87 127 124 84 83 123 120 80)  ($NR3 $NS1 $NVert1) simpleGrading (1.0 1 1.0)

//     hex (88 128 129 89 84 124 125 85)  ($NR3 $NS1 $NVert2) simpleGrading (1.0 1 1.0)
//     hex (89 129 130 90 85 125 126 86)  ($NR3 $NS1 $NVert2) simpleGrading (1.0 1 1.0)
//     hex (90 130 131 91 86 126 127 87)  ($NR3 $NS1 $NVert2) simpleGrading (1.0 1 1.0)
//     hex (91 131 128 88 87 127 124 84)  ($NR3 $NS1 $NVert2) simpleGrading (1.0 1 1.0)

     hex (92 132 133 93 88 128 129 89)  ($NR3 $NS1 $NVert3) simpleGrading (1.0 1 1.0)
     hex (93 133 134 94 89 129 130 90)  ($NR3 $NS1 $NVert3) simpleGrading (1.0 1 1.0)
     hex (94 134 135 95 90 130 131 91)  ($NR3 $NS1 $NVert3) simpleGrading (1.0 1 1.0)
     hex (95 135 132 92 91 131 128 88)  ($NR3 $NS1 $NVert3) simpleGrading (1.0 1 1.0)

     hex (96 136 137 97 92 132 133 93)  ($NR3 $NS1 $NVert4) simpleGrading (1.0 1 5.004782930452105)
     hex (97 137 138 98 93 133 134 94)  ($NR3 $NS1 $NVert4) simpleGrading (1.0 1 5.004782930452105)
     hex (98 138 139 99 94 134 135 95)  ($NR3 $NS1 $NVert4) simpleGrading (1.0 1 5.004782930452105)
     hex (99 139 136 96 95 135 132 92)  ($NR3 $NS1 $NVert4) simpleGrading (1.0 1 5.004782930452105)

     hex (100 140 141 101 96 136 137 97)  ($NR3 $NS1 $NVert5) simpleGrading (1.0 1 1.0)
     hex (101 141 142 102 97 137 138 98)  ($NR3 $NS1 $NVert5) simpleGrading (1.0 1 1.0)
     hex (102 142 143 103 98 138 139 99)  ($NR3 $NS1 $NVert5) simpleGrading (1.0 1 1.0)
     hex (103 143 140 100 99 139 136 96)  ($NR3 $NS1 $NVert5) simpleGrading (1.0 1 1.0)

     hex (104 144 145 105 100 140 141 101)  ($NR3 $NS1 $NVert6) simpleGrading (1.0 1 1.03261053490841)
     hex (105 145 146 106 101 141 142 102)  ($NR3 $NS1 $NVert6) simpleGrading (1.0 1 1.03261053490841)
     hex (106 146 147 107 102 142 143 103)  ($NR3 $NS1 $NVert6) simpleGrading (1.0 1 1.03261053490841)
     hex (107 147 144 104 103 143 140 100)  ($NR3 $NS1 $NVert6) simpleGrading (1.0 1 1.03261053490841)

     hex (108 148 149 109 104 144 145 105)  ($NR3 $NS1 $NVert7) simpleGrading (1.0 1 2.140093726301576)
     hex (109 149 150 110 105 145 146 106)  ($NR3 $NS1 $NVert7) simpleGrading (1.0 1 2.140093726301576)
     hex (110 150 151 111 106 146 147 107)  ($NR3 $NS1 $NVert7) simpleGrading (1.0 1 2.140093726301576)
     hex (111 151 148 108 107 147 144 104)  ($NR3 $NS1 $NVert7) simpleGrading (1.0 1 2.140093726301576)

     hex (112 152 153 113 108 148 149 109)  ($NR3 $NS1 $NVert8) simpleGrading (1.0 1 1.0)
     hex (113 153 154 114 109 149 150 110)  ($NR3 $NS1 $NVert8) simpleGrading (1.0 1 1.0)
     hex (114 154 155 115 110 150 151 111)  ($NR3 $NS1 $NVert8) simpleGrading (1.0 1 1.0)
     hex (115 155 152 112 111 151 148 108)  ($NR3 $NS1 $NVert8) simpleGrading (1.0 1 1.0)

     hex (116 156 157 117 112 152 153 113)  ($NR3 $NS1 $NVert9) simpleGrading (1.0 1 0.09928280838458875)
     hex (117 157 158 118 113 153 154 114)  ($NR3 $NS1 $NVert9) simpleGrading (1.0 1 0.09928280838458875)
     hex (118 158 159 119 114 154 155 115)  ($NR3 $NS1 $NVert9) simpleGrading (1.0 1 0.09928280838458875)
     hex (119 159 156 116 115 155 152 112)  ($NR3 $NS1 $NVert9) simpleGrading (1.0 1 0.09928280838458875)

     hex (124 164 165 125 120 160 161 121)  ($NR4 $NS1 $NVert1) simpleGrading (0.2689049732635286 1 1.0)
     hex (125 165 166 126 121 161 162 122)  ($NR4 $NS1 $NVert1) simpleGrading (0.2689049732635286 1 1.0)
     hex (126 166 167 127 122 162 163 123)  ($NR4 $NS1 $NVert1) simpleGrading (0.2689049732635286 1 1.0)
     hex (127 167 164 124 123 163 160 120)  ($NR4 $NS1 $NVert1) simpleGrading (0.2689049732635286 1 1.0)

     hex (128 168 169 129 124 164 165 125)  ($NR4 $NS1 $NVert2) simpleGrading (0.2689049732635286 1 1.0)
     hex (129 169 170 130 125 165 166 126)  ($NR4 $NS1 $NVert2) simpleGrading (0.2689049732635286 1 1.0)
     hex (130 170 171 131 126 166 167 127)  ($NR4 $NS1 $NVert2) simpleGrading (0.2689049732635286 1 1.0)
     hex (131 171 168 128 127 167 164 124)  ($NR4 $NS1 $NVert2) simpleGrading (0.2689049732635286 1 1.0)

     hex (132 172 173 133 128 168 169 129)  ($NR4 $NS1 $NVert3) simpleGrading (0.2689049732635286 1 1.0)
     hex (133 173 174 134 129 169 170 130)  ($NR4 $NS1 $NVert3) simpleGrading (0.2689049732635286 1 1.0)
     hex (134 174 175 135 130 170 171 131)  ($NR4 $NS1 $NVert3) simpleGrading (0.2689049732635286 1 1.0)
     hex (135 175 172 132 131 171 168 128)  ($NR4 $NS1 $NVert3) simpleGrading (0.2689049732635286 1 1.0)

     hex (136 176 177 137 132 172 173 133)  ($NR4 $NS1 $NVert4) simpleGrading (0.2689049732635286 1 5.004782930452105)
     hex (137 177 178 138 133 173 174 134)  ($NR4 $NS1 $NVert4) simpleGrading (0.2689049732635286 1 5.004782930452105)
     hex (138 178 179 139 134 174 175 135)  ($NR4 $NS1 $NVert4) simpleGrading (0.2689049732635286 1 5.004782930452105)
     hex (139 179 176 136 135 175 172 132)  ($NR4 $NS1 $NVert4) simpleGrading (0.2689049732635286 1 5.004782930452105)

     hex (140 180 181 141 136 176 177 137)  ($NR4 $NS1 $NVert5) simpleGrading (0.2689049732635286 1 1.0)
     hex (141 181 182 142 137 177 178 138)  ($NR4 $NS1 $NVert5) simpleGrading (0.2689049732635286 1 1.0)
     hex (142 182 183 143 138 178 179 139)  ($NR4 $NS1 $NVert5) simpleGrading (0.2689049732635286 1 1.0)
     hex (143 183 180 140 139 179 176 136)  ($NR4 $NS1 $NVert5) simpleGrading (0.2689049732635286 1 1.0)

     hex (144 184 185 145 140 180 181 141)  ($NR4 $NS1 $NVert6) simpleGrading (0.2689049732635286 1 1.03261053490841)
     hex (145 185 186 146 141 181 182 142)  ($NR4 $NS1 $NVert6) simpleGrading (0.2689049732635286 1 1.03261053490841)
     hex (146 186 187 147 142 182 183 143)  ($NR4 $NS1 $NVert6) simpleGrading (0.2689049732635286 1 1.03261053490841)
     hex (147 187 184 144 143 183 180 140)  ($NR4 $NS1 $NVert6) simpleGrading (0.2689049732635286 1 1.03261053490841)

     hex (148 188 189 149 144 184 185 145)  ($NR4 $NS1 $NVert7) simpleGrading (0.2689049732635286 1 2.140093726301576)
     hex (149 189 190 150 145 185 186 146)  ($NR4 $NS1 $NVert7) simpleGrading (0.2689049732635286 1 2.140093726301576)
     hex (150 190 191 151 146 186 187 147)  ($NR4 $NS1 $NVert7) simpleGrading (0.2689049732635286 1 2.140093726301576)
     hex (151 191 188 148 147 187 184 144)  ($NR4 $NS1 $NVert7) simpleGrading (0.2689049732635286 1 2.140093726301576)

     hex (152 192 193 153 148 188 189 149)  ($NR4 $NS1 $NVert8) simpleGrading (0.2689049732635286 1 1.0)
     hex (153 193 194 154 149 189 190 150)  ($NR4 $NS1 $NVert8) simpleGrading (0.2689049732635286 1 1.0)
     hex (154 194 195 155 150 190 191 151)  ($NR4 $NS1 $NVert8) simpleGrading (0.2689049732635286 1 1.0)
     hex (155 195 192 152 151 191 188 148)  ($NR4 $NS1 $NVert8) simpleGrading (0.2689049732635286 1 1.0)

     hex (156 196 197 157 152 192 193 153)  ($NR4 $NS1 $NVert9) simpleGrading (0.2689049732635286 1 0.09928280838458875)
     hex (157 197 198 158 153 193 194 154)  ($NR4 $NS1 $NVert9) simpleGrading (0.2689049732635286 1 0.09928280838458875)
     hex (158 198 199 159 154 194 195 155)  ($NR4 $NS1 $NVert9) simpleGrading (0.2689049732635286 1 0.09928280838458875)
     hex (159 199 196 156 155 195 192 152)  ($NR4 $NS1 $NVert9) simpleGrading (0.2689049732635286 1 0.09928280838458875)

//     hex (164 204 205 165 160 200 201 161)  ($NR5 $NS1 $NVert1) simpleGrading (0.7946081774455758 1 1.0)
//     hex (165 205 206 166 161 201 202 162)  ($NR5 $NS1 $NVert1) simpleGrading (0.7946081774455758 1 1.0)
//     hex (166 206 207 167 162 202 203 163)  ($NR5 $NS1 $NVert1) simpleGrading (0.7946081774455758 1 1.0)
//     hex (167 207 204 164 163 203 200 160)  ($NR5 $NS1 $NVert1) simpleGrading (0.7946081774455758 1 1.0)

//     hex (168 208 209 169 164 204 205 165)  ($NR5 $NS1 $NVert2) simpleGrading (0.7946081774455758 1 1.0)
//     hex (169 209 210 170 165 205 206 166)  ($NR5 $NS1 $NVert2) simpleGrading (0.7946081774455758 1 1.0)
//     hex (170 210 211 171 166 206 207 167)  ($NR5 $NS1 $NVert2) simpleGrading (0.7946081774455758 1 1.0)
//     hex (171 211 208 168 167 207 204 164)  ($NR5 $NS1 $NVert2) simpleGrading (0.7946081774455758 1 1.0)

//     hex (172 212 213 173 168 208 209 169)  ($NR5 $NS1 $NVert3) simpleGrading (0.7946081774455758 1 1.0)
//     hex (173 213 214 174 169 209 210 170)  ($NR5 $NS1 $NVert3) simpleGrading (0.7946081774455758 1 1.0)