/*--------------------------------*- C++ -*----------------------------------*\
  =========                 |
  \\      /  F ield         | OpenFOAM: The Open Source CFD Toolbox
   \\    /   O peration     | Website:  https://openfoam.org
    \\  /    A nd           | Version:  9
     \\/     M anipulation  |
\*---------------------------------------------------------------------------*/
FoamFile
{
    format      ascii;
    class       dictionary;
    object      topoSetDict;
}
// * * * * * * * * * * * * * * * * * * * * * * * * * * * * * * * * * * * * * //

#include "${FOAM_CASE}/constant/globalVars"

Dbcol #calc "$DiaBcol";
mDbcol #calc "-$Dbcol";

delHt  #calc "0.15*$Dbcol";

Bot1 #calc "0.5*$Dbcol";
Bot2 #calc "$Bot1+$delHt";

Top1 #calc "0.9*$LiqHt";
Top2 #calc "$Top1+$delHt";

actions
(
    {
        name    injection;
        type    cellSet;
        action  new;
        source  boxToCell;
        sourceInfo
        {
           boxes
           (
	        ($mDbcol $Bot1 $mDbcol) ($Dbcol $Bot2 $Dbcol)
           );
        }
    }

    {
        name    injection;
        type    cellZoneSet;
        action  new;
        source  setToCellZone;
        sourceInfo
        {
           set  injection;
        }
    }

    //---------------------------------//
    {
        name    outlet;
        type    cellSet;
        action  new;
        source  boxToCell;
        sourceInfo
        {
           boxes
           (
                // (0 -1 0.89) (0.025 1 0.9)
	        ($mDbcol $Top1 $mDbcol) ($Dbcol $Top2 $Dbcol)
           );
        }
    }

    {
        name    outlet;
        type    cellZoneSet;
        action  new;
        source  setToCellZone;
        sourceInfo
        {
           set  outlet;
        }
    }    

);

// ************************************************************************* //
