/*--------------------------------*- C++ -*----------------------------------*\
  =========                 |
  \\      /  F ield         | OpenFOAM: The Open Source CFD Toolbox
   \\    /   O peration     | Website:  https://openfoam.org
    \\  /    A nd           | Version:  9
     \\/     M anipulation  |
\*---------------------------------------------------------------------------*/
FoamFile
{
    format      ascii;
    class       dictionary;
    object      topoSetDict;
}
// * * * * * * * * * * * * * * * * * * * * * * * * * * * * * * * * * * * * * //

actions
(

    {
        action  new;
        type    faceSet;
        name    inlets;
        source  boxToFace;
        sourceInfo
        {
            box   (-10 -10 -10)(10 -0.0349 10);
        }
    }

    {
        action  new;
        type    faceSet;
        name    outlets;
        source  boxToFace;
        sourceInfo
        {
            box   (-10 0.2499 -10)(10 10 10);
        }
    }

);
