/*--------------------------------*- C++ -*----------------------------------*\
| =========                 |                                                 |
| \\      /  F ield         | OpenFOAM: The Open Source CFD Toolbox           |
|  \\    /   O peration     | Version:  v2306                                 |
|   \\  /    A nd           | Website:  www.openfoam.com                      |
|    \\/     M anipulation  |                                                 |
\*---------------------------------------------------------------------------*/
FoamFile
{
    version     2.0;
    format      ascii;
    class       dictionary;
    object      createPatchDict;
}
// * * * * * * * * * * * * * * * * * * * * * * * * * * * * * * * * * * * * * //

pointSync false;

// Patches to create.
patches
(
    {
        // Name of new patch
        name walls;

        // Dictionary to construct new patch from
        //patchInfo
        //{
        //    type patch;
        //}

        // How to construct: either from 'patches' or 'set'
        constructFrom set;

        // If constructFrom = patches : names of patches. Wildcards allowed.
        //patches (otherSide);

        // If constructFrom = set : name of faceSet
        set  inlet2;
    }
);


// ************************************************************************* //
