/*--------------------------------*- C++ -*----------------------------------*\
| =========                 |                                                 |
| \\      /  F ield         | OpenFOAM: The Open Source CFD Toolbox           |
|  \\    /   O peration     | Version:  3.0.0                                 |
|   \\  /    A nd           | Web:      www.OpenFOAM.org                      |
|    \\/     M anipulation  |                                                 |
\*---------------------------------------------------------------------------*/
FoamFile
{
    version     2.0;
    format      ascii;
    class       dictionary;
    location    "system";
    object      fvSolution;
}
// * * * * * * * * * * * * * * * * * * * * * * * * * * * * * * * * * * * * * //

solvers
{
    "alpha.*"
    {
        nAlphaCorr      1;
        nAlphaSubCycles 6;
    }

    bubbles
    {
        nCorr                1;
        tolerance            1e-4;
        scale                true;
        solveOnFinalIterOnly true;
        sourceUpdateInterval 1;
    }

    p_rgh
    {
        solver          GAMG;
        smoother        DIC;
        nPreSweeps      0;
        nPostSweeps     2;
        nFinestSweeps   2;
        cacheAgglomeration true;
        nCellsInCoarsestLevel 10;
        agglomerator    faceAreaPair;
        mergeLevels     1;
        tolerance       1e-8;
        relTol          0.001;
    }

    p_rghFinal
    {
        $p_rgh;
        relTol          0;
    }

    "U.*"
    {
        solver          smoothSolver;
        smoother        symGaussSeidel;
        tolerance       1e-8;
        relTol          0;
        minIter         1;
    }

    "(e|h).*"
    {
        solver          PBiCGStab;
        preconditioner  DILU;
        tolerance       1e-8;
        relTol          0;
    }
    //"(e|h).*"
    //{
    //    solver          smoothSolver;
    //    smoother        symGaussSeidel;
    //    tolerance       1e-9;
    //    relTol          0;
    //    minIter         0;
    //    maxIter         0;
    //}

    "f.*"
    {
        solver          PBiCGStab;
        preconditioner  DILU;
        tolerance       1e-6;
        relTol          0;
    }

    "Yi.*"
    {
        solver          PBiCGStab;
        preconditioner  DILU;
        tolerance       1e-10;
        relTol          0;
        residualAlpha   1e-8;
        //minIter         1;
        residualAlpha   1e-8;
    }
    //"Yi.*"
    //{
    //    solver          smoothSolver;
    //    smoother        symGaussSeidel;
    //    tolerance       1e-8;
    //    relTol          0;
    //    minIter         1;
    //    residualAlpha   1e-8;
    //}

    "(k|epsilon|Theta).*"
    {
        solver          smoothSolver;
        smoother        symGaussSeidel;
        tolerance       1e-7;
        relTol          0;
        minIter         1;
    }

    yPsi
    {
        solver          smoothSolver;
        smoother        symGaussSeidel;
        //solver          PCG;
        //preconditioner  none;
        tolerance       1e-6;
        relTol          1e-3;
    }
    //yPsi
    //{
    //    solver          PCG;
    //    preconditioner  none;
    //    tolerance       1e-10;
    //    relTol          0;
    //}

}

PIMPLE
{
    nOuterCorrectors 2;
    nCorrectors      2;
    nNonOrthogonalCorrectors 0;
    faceMomentum        true;
}

relaxationFactors
{
    //equations
    //{
    //    ".*"            1;
    //}
}
//PIMPLE
//{
//    nOuterCorrectors 3;
//    nCorrectors      1;
//    nNonOrthogonalCorrectors 1;
//}
//
//relaxationFactors
//{
//    equations
//    {
//        ".*"            1;
//    }
//}


// ************************************************************************* //
