/*--------------------------------*- C++ -*----------------------------------*\
  =========                 |
  \\      /  F ield         | OpenFOAM: The Open Source CFD Toolbox
   \\    /   O peration     | Website:  https://openfoam.org
    \\  /    A nd           | Version:  9
     \\/     M anipulation  |
\*---------------------------------------------------------------------------*/
FoamFile
{
    format      ascii;
    class       dictionary;
    object      controlDict;
}
// * * * * * * * * * * * * * * * * * * * * * * * * * * * * * * * * * * * * * //

application         multiphaseEulerFoam;

startFrom           latestTime;

startTime           0;

stopAt              endTime;

endTime             400;

deltaT              1e-4;

writeControl        adjustableRunTime;

writeInterval       5;

purgeWrite          0;

writeFormat         ascii;

writePrecision      6;

writeCompression    uncompressed;

timeFormat          general;

timePrecision       6;

runTimeModifiable   yes;

adjustTimeStep      yes; //yes; //

maxCo               0.5;

maxDeltaT           1;

functions
{
    #includeFunc    residuals(p_rgh, k.liquid, omega.liquid)
    #includeFunc    timeStep
    #includeFunc    writeObjects(d.gas)
    #includeFunc    writeObjects(thermo:rho.gas)
    #includeFunc    writeObjects(thermo:rho.liquid)
    #includeFunc    writeObjects(thermo:mu.gas)
    #includeFunc    writeObjects(thermo:mu.liquid)
    
}


// ************************************************************************* //
