/*--------------------------------*- C++ -*----------------------------------*\
  =========                 |
  \\      /  F ield         | OpenFOAM: The Open Source CFD Toolbox
   \\    /   O peration     | Website:  https://openfoam.org
    \\  /    A nd           | Version:  9
     \\/     M anipulation  |
\*---------------------------------------------------------------------------*/
FoamFile
{
    format      ascii;
    class       volScalarField;
    object      T.gas;
}
// * * * * * * * * * * * * * * * * * * * * * * * * * * * * * * * * * * * * * //

dimensions      [0 0 0 1 0 0 0];

#include "${FOAM_CASE}/constant/globalVars"

internalField   uniform $T0;

boundaryField
{
    #includeEtc "caseDicts/setConstraintTypes"

    inlet
    {
        type            fixedValue;
        value           $internalField;
    }

    outlet
    {
        type            zeroGradient;
    }

    walls
    {
        type            zeroGradient;
    }
}

// ************************************************************************* //
