FoamFile
{
    version     2.0;
    format      ascii;
    class       dictionary;
    object      blockMeshDict;
}

R1 20.0;
R2 100.0;

mR1 -20.0;
mR2 -100.0;

L1 200.0;
L2 50.0;
L3 30.0;
L4 0.0;

CW1 10.0;
mCW1 -10.0;
C11 14.142135623730951;
mC11 -14.142135623730951;
C21 14.14213562373095;
mC21 -14.14213562373095;

CW2 50.0;
mCW2 -50.0;
C12 70.71067811865476;
mC12 -70.71067811865476;
C22 70.71067811865474;
mC22 -70.71067811865474;

NR1 6;
NR2 24;

NS1 12;

NVert1 50;
NVert2 13;
NVert3 20;

vertices
(
     ($mCW1  $mCW1  $L1)// 0
     ( $CW1  $mCW1  $L1)
     ( $CW1   $CW1  $L1)
     ($mCW1   $CW1  $L1)

     ($mCW1  $mCW1  $L2)// 4
     ( $CW1  $mCW1  $L2)
     ( $CW1   $CW1  $L2)
     ($mCW1   $CW1  $L2)

     ($mCW1  $mCW1  $L3)// 8
     ( $CW1  $mCW1  $L3)
     ( $CW1   $CW1  $L3)
     ($mCW1   $CW1  $L3)

     ($mCW1  $mCW1  $L4)// 12
     ( $CW1  $mCW1  $L4)
     ( $CW1   $CW1  $L4)
     ($mCW1   $CW1  $L4)

    ($mC11   $mC21   $L1)// 16
    ( $C11   $mC21   $L1)
    ( $C11   $C21    $L1)
    ($mC11   $C21    $L1)

    ($mC11   $mC21   $L2)// 20
    ( $C11   $mC21   $L2)
    ( $C11   $C21    $L2)
    ($mC11   $C21    $L2)

    ($mC11   $mC21   $L3)// 24
    ( $C11   $mC21   $L3)
    ( $C11   $C21    $L3)
    ($mC11   $C21    $L3)

    ($mC11   $mC21   $L4)// 28
    ( $C11   $mC21   $L4)
    ( $C11   $C21    $L4)
    ($mC11   $C21    $L4)

    ($mC12   $mC22   $L1)// 32
    ( $C12   $mC22   $L1)
    ( $C12   $C22    $L1)
    ($mC12   $C22    $L1)

    ($mC12   $mC22   $L2)// 36
    ( $C12   $mC22   $L2)
    ( $C12   $C22    $L2)
    ($mC12   $C22    $L2)

    ($mC12   $mC22   $L3)// 40
    ( $C12   $mC22   $L3)
    ( $C12   $C22    $L3)
    ($mC12   $C22    $L3)

    ($mC12   $mC22   $L4)// 44
    ( $C12   $mC22   $L4)
    ( $C12   $C22    $L4)
    ($mC12   $C22    $L4)

);

blocks
(
     hex (4 5 6 7 0 1 2 3) ($NS1 $NS1 $NVert1) simpleGrading (1 1 3.3013528192981254)
//     hex (8 9 10 11 4 5 6 7) ($NS1 $NS1 $NVert2) simpleGrading (1 1 1.0)
     hex (12 13 14 15 8 9 10 11) ($NS1 $NS1 $NVert3) simpleGrading (1 1 1.0)

     hex (4 20 21 5 0 16 17 1) ($NR1 $NS1  $NVert1) simpleGrading (1.0 1 3.3013528192981254)
     hex (5 21 22 6 1 17 18 2) ($NR1 $NS1  $NVert1) simpleGrading (1.0 1 3.3013528192981254)
     hex (6 22 23 7 2 18 19 3) ($NR1 $NS1  $NVert1) simpleGrading (1.0 1 3.3013528192981254)
     hex (7 23 20 4 3 19 16 0) ($NR1 $NS1  $NVert1) simpleGrading (1.0 1 3.3013528192981254)

//     hex (8 24 25 9 4 20 21 5) ($NR1 $NS1  $NVert2) simpleGrading (1.0 1 1.0)
//     hex (9 25 26 10 5 21 22 6) ($NR1 $NS1  $NVert2) simpleGrading (1.0 1 1.0)
//     hex (10 26 27 11 6 22 23 7) ($NR1 $NS1  $NVert2) simpleGrading (1.0 1 1.0)
//     hex (11 27 24 8 7 23 20 4) ($NR1 $NS1  $NVert2) simpleGrading (1.0 1 1.0)

     hex (12 28 29 13 8 24 25 9) ($NR1 $NS1  $NVert3) simpleGrading (1.0 1 1.0)
     hex (13 29 30 14 9 25 26 10) ($NR1 $NS1  $NVert3) simpleGrading (1.0 1 1.0)
     hex (14 30 31 15 10 26 27 11) ($NR1 $NS1  $NVert3) simpleGrading (1.0 1 1.0)
     hex (15 31 28 12 11 27 24 8) ($NR1 $NS1  $NVert3) simpleGrading (1.0 1 1.0)

     hex (20 36 37 21 16 32 33 17) ($NR2 $NS1  $NVert1) simpleGrading (4.524303583558428 1 3.3013528192981254)
     hex (21 37 38 22 17 33 34 18) ($NR2 $NS1  $NVert1) simpleGrading (4.524303583558428 1 3.3013528192981254)
     hex (22 38 39 23 18 34 35 19) ($NR2 $NS1  $NVert1) simpleGrading (4.524303583558428 1 3.3013528192981254)
     hex (23 39 36 20 19 35 32 16) ($NR2 $NS1  $NVert1) simpleGrading (4.524303583558428 1 3.3013528192981254)

     hex (24 40 41 25 20 36 37 21) ($NR2 $NS1  $NVert2) simpleGrading (4.524303583558428 1 1.0)
     hex (25 41 42 26 21 37 38 22) ($NR2 $NS1  $NVert2) simpleGrading (4.524303583558428 1 1.0)
     hex (26 42 43 27 22 38 39 23) ($NR2 $NS1  $NVert2) simpleGrading (4.524303583558428 1 1.0)
     hex (27 43 40 24 23 39 36 20) ($NR2 $NS1  $NVert2) simpleGrading (4.524303583558428 1 1.0)

     hex (28 44 45 29 24 40 41 25) ($NR2 $NS1  $NVert3) simpleGrading (4.524303583558428 1 1.0)
     hex (29 45 46 30 25 41 42 26) ($NR2 $NS1  $NVert3) simpleGrading (4.524303583558428 1 1.0)
     hex (30 46 47 31 26 42 43 27) ($NR2 $NS1  $NVert3) simpleGrading (4.524303583558428 1 1.0)
     hex (31 47 44 28 27 43 40 24) ($NR2 $NS1  $NVert3) simpleGrading (4.524303583558428 1 1.0)

);

edges
(
    arc 16 17 (0    $mR1 $L1)
    arc 17 18 ($R1 0 $L1)
    arc 18 19 (0 $R1 $L1)
    arc 19 16 ($mR1 0 $L1)

    arc 20 21 (0    $mR1 $L2)
    arc 21 22 ($R1 0 $L2)
    arc 22 23 (0 $R1 $L2)
    arc 23 20 ($mR1 0 $L2)

    arc 24 25 (0    $mR1 $L3)
    arc 25 26 ($R1 0 $L3)
    arc 26 27 (0 $R1 $L3)
    arc 27 24 ($mR1 0 $L3)

    arc 28 29 (0    $mR1 $L4)
    arc 29 30 ($R1 0 $L4)
    arc 30 31 (0 $R1 $L4)
    arc 31 28 ($mR1 0 $L4)

    arc 32 33 (0    $mR2 $L1)
    arc 33 34 ($R2 0 $L1)
    arc 34 35 (0 $R2 $L1)
    arc 35 32 ($mR2 0 $L1)

    arc 36 37 (0    $mR2 $L2)
    arc 37 38 ($R2 0 $L2)
    arc 38 39 (0 $R2 $L2)
    arc 39 36 ($mR2 0 $L2)

    arc 40 41 (0    $mR2 $L3)
    arc 41 42 ($R2 0 $L3)
    arc 42 43 (0 $R2 $L3)
    arc 43 40 ($mR2 0 $L3)

    arc 44 45 (0    $mR2 $L4)
    arc 45 46 ($R2 0 $L4)
    arc 46 47 (0 $R2 $L4)
    arc 47 44 ($mR2 0 $L4)

);

boundary
(
    SpargerWalls
    {
        type patch;
        faces
        (
            ( 8 9 10 11)

            ( 8 24 25 9)
            ( 9 25 10 26)
            ( 10 26 27 11)
            ( 11 27 24 8)

            ( 24 25 21 20)
            ( 25 26 22 21)
            ( 26 27 23 22)
            ( 27 24 20 23)

        );
    }
    SpargerInlet
    {
        type patch;
        faces
        (
            ( 4 5 6 7)

            ( 4 20 21 5)
            ( 5 21 6 22)
            ( 6 22 23 7)
            ( 7 23 20 4)

        );
    }
    Outlet
    {
        type patch;
        faces
        (
            ( 0 1 2 3)

            ( 0 16 17 1)
            ( 1 17 2 18)
            ( 2 18 19 3)
            ( 3 19 16 0)

            ( 16 32 33 17)
            ( 17 33 18 34)
            ( 18 34 35 19)
            ( 19 35 32 16)

        );
    }
    BCRWalls
    {
        type patch;
        faces
        (
            ( 12 13 14 15)

            ( 12 28 29 13)
            ( 13 29 14 30)
            ( 14 30 31 15)
            ( 15 31 28 12)

            ( 28 44 45 29)
            ( 29 45 30 46)
            ( 30 46 47 31)
            ( 31 47 44 28)

            ( 44 45 41 40)
            ( 45 46 42 41)
            ( 46 47 43 42)
            ( 47 44 40 43)

            ( 40 41 37 36)
            ( 41 42 38 37)
            ( 42 43 39 38)
            ( 43 40 36 39)

            ( 36 37 33 32)
            ( 37 38 34 33)
            ( 38 39 35 34)
            ( 39 36 32 35)

        );
    }
);

mergePatchPairs
(
);
