FoamFile
{
    version 	 2.0;
    format 	 ascii;
    class 	 dictionary;
    location 	 "system";
    object 	 controlDict;
}



application 	 reactingFoam;

startFrom 	 latestTime;

startTime 	 0;

stopAt 		 endTime;

endTime 	 450;

deltaT 		 5e-4;

writeControl 	 adjustableRunTime;

writeInterval 	 1;

purgeWrite 	 3;

writeFormat 	 ascii;

writePrecision 	 8;

writeCompression off;

timeFormat 	 general;

timePrecision 	 8;

runTimeModifiable true;

adjustTimeStep 	 yes;

maxCo 		 6;

maxDeltaT 	 0.001;

Ulim 		 0.5;
pthermo 	 79993.42105263157;
adjustFluxOut 	 true;
poissonPEqn 	 true;
pinit 		 false;
refDensity 	 0.063;
maxDensityChange 	 1000;
Tmin 		 300.0;
Tmax 		 1144.25;
Tground 	 300;
outletDissZ 	 -0.16;
outletDissRad 	 0.24725;
addPreferentialDiffusion 	 true;
OutletPatch 	 true;
maintainTurbulence 	 true;
radInnerDumpCurtain 	 0.106;
radOuterDumpCurtain 	 0.123;
radInnerCurtain 	 0.106;
radOuterCurtain 	 0.138;
radPlatter 	 0.089;
heightPlatter 	 -0.045;
YSink 		 false;
TSink 		 false;
timeSink 	 0.01;

functions
{

    cuttingPlane
    {
        type                      surfaces;
        functionObjectLibs        ("libsampling.so");
        outputControl             outputTime;
        surfaceFormat             vtk;
        fields                    ( U As4 AsH3 H2 N2 GaCl HCl rho T );

        interpolationScheme        cellPoint;

        surfaces
        (
            zPlane
            {
                type                cuttingPlane;
                planeType           pointAndNormal;
                pointAndNormalDict
                {
                    basePoint       (0 0 0);
                    normalVector    (1 0 0);
                }
                interpolate         true;
            }
        );

    }
    surfaces
    {
        type                      surfaces;
        functionObjectLibs        ("libsampling.so");
        outputControl             outputTime;
        surfaceFormat             vtk;
        fields                    ( fluxperSAsH3  fluxperSAs4 );

        interpolationScheme        cellPoint;

        surfaces
        (
            true_plate
            {
                type                patch;
                patches             ("PlatterTop");
                interpolate         false;
            }
        );

    }

    fieldMinMax
    {
        type fieldMinMax;
        functionObjectLibs ("libfieldFunctionObjects.so");
        log yes;
        outputControl  timeStep;
        outputInterval 1;
        mode magnitude;
        fields
        (
            U
            p
            T
            rho
        );
    }
}
