/*--------------------------------*- C++ -*----------------------------------*\
| =========                 |                                                 |
| \\      /  F ield         | OpenFOAM: The Open Source CFD Toolbox           |
|  \\    /   O peration     | Version:  3.0.0                                 |
|   \\  /    A nd           | Web:      www.OpenFOAM.org                      |
|    \\/     M anipulation  |                                                 |
\*---------------------------------------------------------------------------*/
FoamFile
{
    version     2.0;
    format      ascii;
    class       dictionary;
    location    "system";
    object      setFieldsDict;
}
// * * * * * * * * * * * * * * * * * * * * * * * * * * * * * * * * * * * * * //

defaultFieldValues
(
    volScalarFieldValue alpha.gas 1
    volScalarFieldValue alpha.liquid 0
);

regions
(
    boxToCell
    {
        box (-2.5 0.0 -2.5) (2.5 0.260 2.5);
        fieldValues
        (
            volScalarFieldValue alpha.gas 0
            volScalarFieldValue alpha.liquid 1
            //volScalarFieldValue nbut.liquid 3.2e-6 // 8e-6 = 0.25 mol/m^3
        );
    }
);


// ************************************************************************* //
