/*--------------------------------*- C++ -*----------------------------------*\
  =========                 |
  \\      /  F ield         | OpenFOAM: The Open Source CFD Toolbox
   \\    /   O peration     | Website:  https://openfoam.org
    \\  /    A nd           | Version:  13
     \\/     M anipulation  |
\*---------------------------------------------------------------------------*/
FoamFile
{
    format      ascii;
    class       polyBoundaryMesh;
    location    "constant/polyMesh";
    object      boundary;
}
// * * * * * * * * * * * * * * * * * * * * * * * * * * * * * * * * * * * * * //

13
(
    outlet
    {
        type            patch;
        nFaces          1288;
        startFace       339020;
    }
    impeller
    {
        type            wall;
        inGroups        List<word> 1(wall);
        nFaces          2336;
        startFace       340308;
    }
    vessel
    {
        type            wall;
        inGroups        List<word> 1(wall);
        nFaces          7392;
        startFace       342644;
    }
    shaft
    {
        type            wall;
        inGroups        List<word> 1(wall);
        nFaces          1560;
        startFace       350036;
    }
    inlet
    {
        type            patch;
        nFaces          84;
        startFace       351596;
    }
    nonCouple1
    {
        type            patch;
        inGroups        List<word> 1(nonCouple);
        nFaces          5848;
        startFace       351680;
    }
    nonCouple2
    {
        type            patch;
        inGroups        List<word> 1(nonCouple);
        nFaces          5848;
        startFace       357528;
    }
    walls
    {
        type            wall;
        inGroups        List<word> 
2
(
wall
walls
)
;
        nFaces          3168;
        startFace       363376;
    }
    nonConformalCyclic_on_nonCouple1
    {
        type            nonConformalCyclic;
        inGroups        List<word> 1(nonConformalCyclic);
        nFaces          0;
        startFace       366544;
        matchTolerance  0.0001;
        neighbourPatch  nonConformalCyclic_on_nonCouple2;
        transformType   none;
        originalPatch   nonCouple1;
    }
    nonConformalCyclic_on_nonCouple2
    {
        type            nonConformalCyclic;
        inGroups        List<word> 1(nonConformalCyclic);
        nFaces          0;
        startFace       366544;
        matchTolerance  0.0001;
        neighbourPatch  nonConformalCyclic_on_nonCouple1;
        transformType   none;
        originalPatch   nonCouple2;
    }
    nonConformalError_on_nonCouple1
    {
        type            nonConformalError;
        inGroups        List<word> 1(nonConformalError);
        nFaces          0;
        startFace       366544;
        originalPatch   nonCouple1;
    }
    nonConformalError_on_nonCouple2
    {
        type            nonConformalError;
        inGroups        List<word> 1(nonConformalError);
        nFaces          0;
        startFace       366544;
        originalPatch   nonCouple2;
    }
    heater
    {
        type            wall;
        inGroups        List<word> 1(wall);
        nFaces          1204;
        startFace       366544;
    }
)

// ************************************************************************* //
