/*--------------------------------*- C++ -*----------------------------------*\
  =========                 |
  \\      /  F ield         | OpenFOAM: The Open Source CFD Toolbox
   \\    /   O peration     | Website:  https://openfoam.org
    \\  /    A nd           | Version:  dev
     \\/     M anipulation  |
\*---------------------------------------------------------------------------*/
FoamFile
{
    format      ascii;
    class       dictionary;
    location    "system";
    object      controlDict;
}
// * * * * * * * * * * * * * * * * * * * * * * * * * * * * * * * * * * * * * //

application     multiphaseEulerFoam;

startFrom       latestTime;

startTime       0;

stopAt          endTime;

endTime         100.0;

deltaT          1e-5;

writeControl    adjustableRunTime;

writeInterval   0.2;

purgeWrite      0;

writeFormat     ascii;

writePrecision  6;

writeCompression off;

timeFormat      general;

timePrecision   6;

runTimeModifiable no;

adjustTimeStep  yes;

maxCo           0.3;

maxDeltaT       1;

// ************************************************************************* //
