FoamFile
{
    version     2.0;
    format      ascii;
    class       dictionary;
    object      blockMeshDict;
}

convertToMeters 1.0;


// * * * * * * * * * * * * * * * * * * * * * * * * * * * * * * * * * * * * * //
vertices
(
( 0.0 0.0  0.0)
( 1.0 0.0  0.0)
( 2.0 0.0  0.0)
( 3.0 0.0  0.0)
( 4.0 0.0  0.0)
( 5.0 0.0  0.0)
( 6.0 0.0  0.0)
( 7.0 0.0  0.0)
( 8.0 0.0  0.0)
( 9.0 0.0  0.0)
( 10.0 0.0  0.0)
( 0.0 1.0  0.0)
( 1.0 1.0  0.0)
( 2.0 1.0  0.0)
( 3.0 1.0  0.0)
( 4.0 1.0  0.0)
( 5.0 1.0  0.0)
( 6.0 1.0  0.0)
( 7.0 1.0  0.0)
( 8.0 1.0  0.0)
( 9.0 1.0  0.0)
( 10.0 1.0  0.0)
( 0.0 2.0  0.0)
( 1.0 2.0  0.0)
( 2.0 2.0  0.0)
( 3.0 2.0  0.0)
( 4.0 2.0  0.0)
( 5.0 2.0  0.0)
( 6.0 2.0  0.0)
( 7.0 2.0  0.0)
( 8.0 2.0  0.0)
( 9.0 2.0  0.0)
( 10.0 2.0  0.0)
( 0.0 3.0  0.0)
( 1.0 3.0  0.0)
( 2.0 3.0  0.0)
( 3.0 3.0  0.0)
( 4.0 3.0  0.0)
( 5.0 3.0  0.0)
( 6.0 3.0  0.0)
( 7.0 3.0  0.0)
( 8.0 3.0  0.0)
( 9.0 3.0  0.0)
( 10.0 3.0  0.0)
( 0.0 4.0  0.0)
( 1.0 4.0  0.0)
( 2.0 4.0  0.0)
( 3.0 4.0  0.0)
( 4.0 4.0  0.0)
( 5.0 4.0  0.0)
( 6.0 4.0  0.0)
( 7.0 4.0  0.0)
( 8.0 4.0  0.0)
( 9.0 4.0  0.0)
( 10.0 4.0  0.0)
( 0.0 5.0  0.0)
( 1.0 5.0  0.0)
( 2.0 5.0  0.0)
( 3.0 5.0  0.0)
( 4.0 5.0  0.0)
( 5.0 5.0  0.0)
( 6.0 5.0  0.0)
( 7.0 5.0  0.0)
( 8.0 5.0  0.0)
( 9.0 5.0  0.0)
( 10.0 5.0  0.0)
( 0.0 6.0  0.0)
( 1.0 6.0  0.0)
( 2.0 6.0  0.0)
( 3.0 6.0  0.0)
( 4.0 6.0  0.0)
( 5.0 6.0  0.0)
( 6.0 6.0  0.0)
( 7.0 6.0  0.0)
( 8.0 6.0  0.0)
( 9.0 6.0  0.0)
( 10.0 6.0  0.0)
( 0.0 7.0  0.0)
( 1.0 7.0  0.0)
( 2.0 7.0  0.0)
( 3.0 7.0  0.0)
( 4.0 7.0  0.0)
( 5.0 7.0  0.0)
( 6.0 7.0  0.0)
( 7.0 7.0  0.0)
( 8.0 7.0  0.0)
( 9.0 7.0  0.0)
( 10.0 7.0  0.0)
( 0.0 8.0  0.0)
( 1.0 8.0  0.0)
( 2.0 8.0  0.0)
( 3.0 8.0  0.0)
( 4.0 8.0  0.0)
( 5.0 8.0  0.0)
( 6.0 8.0  0.0)
( 7.0 8.0  0.0)
( 8.0 8.0  0.0)
( 9.0 8.0  0.0)
( 10.0 8.0  0.0)
( 0.0 9.0  0.0)
( 1.0 9.0  0.0)
( 2.0 9.0  0.0)
( 3.0 9.0  0.0)
( 4.0 9.0  0.0)
( 5.0 9.0  0.0)
( 6.0 9.0  0.0)
( 7.0 9.0  0.0)
( 8.0 9.0  0.0)
( 9.0 9.0  0.0)
( 10.0 9.0  0.0)
( 0.0 10.0  0.0)
( 1.0 10.0  0.0)
( 2.0 10.0  0.0)
( 3.0 10.0  0.0)
( 4.0 10.0  0.0)
( 5.0 10.0  0.0)
( 6.0 10.0  0.0)
( 7.0 10.0  0.0)
( 8.0 10.0  0.0)
( 9.0 10.0  0.0)
( 10.0 10.0  0.0)
( 0.0 11.0  0.0)
( 1.0 11.0  0.0)
( 2.0 11.0  0.0)
( 3.0 11.0  0.0)
( 4.0 11.0  0.0)
( 5.0 11.0  0.0)
( 6.0 11.0  0.0)
( 7.0 11.0  0.0)
( 8.0 11.0  0.0)
( 9.0 11.0  0.0)
( 10.0 11.0  0.0)
( 0.0 0.0  1.0)
( 1.0 0.0  1.0)
( 2.0 0.0  1.0)
( 3.0 0.0  1.0)
( 4.0 0.0  1.0)
( 5.0 0.0  1.0)
( 6.0 0.0  1.0)
( 7.0 0.0  1.0)
( 8.0 0.0  1.0)
( 9.0 0.0  1.0)
( 10.0 0.0  1.0)
( 0.0 1.0  1.0)
( 1.0 1.0  1.0)
( 2.0 1.0  1.0)
( 3.0 1.0  1.0)
( 4.0 1.0  1.0)
( 5.0 1.0  1.0)
( 6.0 1.0  1.0)
( 7.0 1.0  1.0)
( 8.0 1.0  1.0)
( 9.0 1.0  1.0)
( 10.0 1.0  1.0)
( 0.0 2.0  1.0)
( 1.0 2.0  1.0)
( 2.0 2.0  1.0)
( 3.0 2.0  1.0)
( 4.0 2.0  1.0)
( 5.0 2.0  1.0)
( 6.0 2.0  1.0)
( 7.0 2.0  1.0)
( 8.0 2.0  1.0)
( 9.0 2.0  1.0)
( 10.0 2.0  1.0)
( 0.0 3.0  1.0)
( 1.0 3.0  1.0)
( 2.0 3.0  1.0)
( 3.0 3.0  1.0)
( 4.0 3.0  1.0)
( 5.0 3.0  1.0)
( 6.0 3.0  1.0)
( 7.0 3.0  1.0)
( 8.0 3.0  1.0)
( 9.0 3.0  1.0)
( 10.0 3.0  1.0)
( 0.0 4.0  1.0)
( 1.0 4.0  1.0)
( 2.0 4.0  1.0)
( 3.0 4.0  1.0)
( 4.0 4.0  1.0)
( 5.0 4.0  1.0)
( 6.0 4.0  1.0)
( 7.0 4.0  1.0)
( 8.0 4.0  1.0)
( 9.0 4.0  1.0)
( 10.0 4.0  1.0)
( 0.0 5.0  1.0)
( 1.0 5.0  1.0)
( 2.0 5.0  1.0)
( 3.0 5.0  1.0)
( 4.0 5.0  1.0)
( 5.0 5.0  1.0)
( 6.0 5.0  1.0)
( 7.0 5.0  1.0)
( 8.0 5.0  1.0)
( 9.0 5.0  1.0)
( 10.0 5.0  1.0)
( 0.0 6.0  1.0)
( 1.0 6.0  1.0)
( 2.0 6.0  1.0)
( 3.0 6.0  1.0)
( 4.0 6.0  1.0)
( 5.0 6.0  1.0)
( 6.0 6.0  1.0)
( 7.0 6.0  1.0)
( 8.0 6.0  1.0)
( 9.0 6.0  1.0)
( 10.0 6.0  1.0)
( 0.0 7.0  1.0)
( 1.0 7.0  1.0)
( 2.0 7.0  1.0)
( 3.0 7.0  1.0)
( 4.0 7.0  1.0)
( 5.0 7.0  1.0)
( 6.0 7.0  1.0)
( 7.0 7.0  1.0)
( 8.0 7.0  1.0)
( 9.0 7.0  1.0)
( 10.0 7.0  1.0)
( 0.0 8.0  1.0)
( 1.0 8.0  1.0)
( 2.0 8.0  1.0)
( 3.0 8.0  1.0)
( 4.0 8.0  1.0)
( 5.0 8.0  1.0)
( 6.0 8.0  1.0)
( 7.0 8.0  1.0)
( 8.0 8.0  1.0)
( 9.0 8.0  1.0)
( 10.0 8.0  1.0)
( 0.0 9.0  1.0)
( 1.0 9.0  1.0)
( 2.0 9.0  1.0)
( 3.0 9.0  1.0)
( 4.0 9.0  1.0)
( 5.0 9.0  1.0)
( 6.0 9.0  1.0)
( 7.0 9.0  1.0)
( 8.0 9.0  1.0)
( 9.0 9.0  1.0)
( 10.0 9.0  1.0)
( 0.0 10.0  1.0)
( 1.0 10.0  1.0)
( 2.0 10.0  1.0)
( 3.0 10.0  1.0)
( 4.0 10.0  1.0)
( 5.0 10.0  1.0)
( 6.0 10.0  1.0)
( 7.0 10.0  1.0)
( 8.0 10.0  1.0)
( 9.0 10.0  1.0)
( 10.0 10.0  1.0)
( 0.0 11.0  1.0)
( 1.0 11.0  1.0)
( 2.0 11.0  1.0)
( 3.0 11.0  1.0)
( 4.0 11.0  1.0)
( 5.0 11.0  1.0)
( 6.0 11.0  1.0)
( 7.0 11.0  1.0)
( 8.0 11.0  1.0)
( 9.0 11.0  1.0)
( 10.0 11.0  1.0)
( 0.0 0.0  2.0)
( 1.0 0.0  2.0)
( 2.0 0.0  2.0)
( 3.0 0.0  2.0)
( 4.0 0.0  2.0)
( 5.0 0.0  2.0)
( 6.0 0.0  2.0)
( 7.0 0.0  2.0)
( 8.0 0.0  2.0)
( 9.0 0.0  2.0)
( 10.0 0.0  2.0)
( 0.0 1.0  2.0)
( 1.0 1.0  2.0)
( 2.0 1.0  2.0)
( 3.0 1.0  2.0)
( 4.0 1.0  2.0)
( 5.0 1.0  2.0)
( 6.0 1.0  2.0)
( 7.0 1.0  2.0)
( 8.0 1.0  2.0)
( 9.0 1.0  2.0)
( 10.0 1.0  2.0)
( 0.0 2.0  2.0)
( 1.0 2.0  2.0)
( 2.0 2.0  2.0)
( 3.0 2.0  2.0)
( 4.0 2.0  2.0)
( 5.0 2.0  2.0)
( 6.0 2.0  2.0)
( 7.0 2.0  2.0)
( 8.0 2.0  2.0)
( 9.0 2.0  2.0)
( 10.0 2.0  2.0)
( 0.0 3.0  2.0)
( 1.0 3.0  2.0)
( 2.0 3.0  2.0)
( 3.0 3.0  2.0)
( 4.0 3.0  2.0)
( 5.0 3.0  2.0)
( 6.0 3.0  2.0)
( 7.0 3.0  2.0)
( 8.0 3.0  2.0)
( 9.0 3.0  2.0)
( 10.0 3.0  2.0)
( 0.0 4.0  2.0)
( 1.0 4.0  2.0)
( 2.0 4.0  2.0)
( 3.0 4.0  2.0)
( 4.0 4.0  2.0)
( 5.0 4.0  2.0)
( 6.0 4.0  2.0)
( 7.0 4.0  2.0)
( 8.0 4.0  2.0)
( 9.0 4.0  2.0)
( 10.0 4.0  2.0)
( 0.0 5.0  2.0)
( 1.0 5.0  2.0)
( 2.0 5.0  2.0)
( 3.0 5.0  2.0)
( 4.0 5.0  2.0)
( 5.0 5.0  2.0)
( 6.0 5.0  2.0)
( 7.0 5.0  2.0)
( 8.0 5.0  2.0)
( 9.0 5.0  2.0)
( 10.0 5.0  2.0)
( 0.0 6.0  2.0)
( 1.0 6.0  2.0)
( 2.0 6.0  2.0)
( 3.0 6.0  2.0)
( 4.0 6.0  2.0)
( 5.0 6.0  2.0)
( 6.0 6.0  2.0)
( 7.0 6.0  2.0)
( 8.0 6.0  2.0)
( 9.0 6.0  2.0)
( 10.0 6.0  2.0)
( 0.0 7.0  2.0)
( 1.0 7.0  2.0)
( 2.0 7.0  2.0)
( 3.0 7.0  2.0)
( 4.0 7.0  2.0)
( 5.0 7.0  2.0)
( 6.0 7.0  2.0)
( 7.0 7.0  2.0)
( 8.0 7.0  2.0)
( 9.0 7.0  2.0)
( 10.0 7.0  2.0)
( 0.0 8.0  2.0)
( 1.0 8.0  2.0)
( 2.0 8.0  2.0)
( 3.0 8.0  2.0)
( 4.0 8.0  2.0)
( 5.0 8.0  2.0)
( 6.0 8.0  2.0)
( 7.0 8.0  2.0)
( 8.0 8.0  2.0)
( 9.0 8.0  2.0)
( 10.0 8.0  2.0)
( 0.0 9.0  2.0)
( 1.0 9.0  2.0)
( 2.0 9.0  2.0)
( 3.0 9.0  2.0)
( 4.0 9.0  2.0)
( 5.0 9.0  2.0)
( 6.0 9.0  2.0)
( 7.0 9.0  2.0)
( 8.0 9.0  2.0)
( 9.0 9.0  2.0)
( 10.0 9.0  2.0)
( 0.0 10.0  2.0)
( 1.0 10.0  2.0)
( 2.0 10.0  2.0)
( 3.0 10.0  2.0)
( 4.0 10.0  2.0)
( 5.0 10.0  2.0)
( 6.0 10.0  2.0)
( 7.0 10.0  2.0)
( 8.0 10.0  2.0)
( 9.0 10.0  2.0)
( 10.0 10.0  2.0)
( 0.0 11.0  2.0)
( 1.0 11.0  2.0)
( 2.0 11.0  2.0)
( 3.0 11.0  2.0)
( 4.0 11.0  2.0)
( 5.0 11.0  2.0)
( 6.0 11.0  2.0)
( 7.0 11.0  2.0)
( 8.0 11.0  2.0)
( 9.0 11.0  2.0)
( 10.0 11.0  2.0)
( 0.0 0.0  3.0)
( 1.0 0.0  3.0)
( 2.0 0.0  3.0)
( 3.0 0.0  3.0)
( 4.0 0.0  3.0)
( 5.0 0.0  3.0)
( 6.0 0.0  3.0)
( 7.0 0.0  3.0)
( 8.0 0.0  3.0)
( 9.0 0.0  3.0)
( 10.0 0.0  3.0)
( 0.0 1.0  3.0)
( 1.0 1.0  3.0)
( 2.0 1.0  3.0)
( 3.0 1.0  3.0)
( 4.0 1.0  3.0)
( 5.0 1.0  3.0)
( 6.0 1.0  3.0)
( 7.0 1.0  3.0)
( 8.0 1.0  3.0)
( 9.0 1.0  3.0)
( 10.0 1.0  3.0)
( 0.0 2.0  3.0)
( 1.0 2.0  3.0)
( 2.0 2.0  3.0)
( 3.0 2.0  3.0)
( 4.0 2.0  3.0)
( 5.0 2.0  3.0)
( 6.0 2.0  3.0)
( 7.0 2.0  3.0)
( 8.0 2.0  3.0)
( 9.0 2.0  3.0)
( 10.0 2.0  3.0)
( 0.0 3.0  3.0)
( 1.0 3.0  3.0)
( 2.0 3.0  3.0)
( 3.0 3.0  3.0)
( 4.0 3.0  3.0)
( 5.0 3.0  3.0)
( 6.0 3.0  3.0)
( 7.0 3.0  3.0)
( 8.0 3.0  3.0)
( 9.0 3.0  3.0)
( 10.0 3.0  3.0)
( 0.0 4.0  3.0)
( 1.0 4.0  3.0)
( 2.0 4.0  3.0)
( 3.0 4.0  3.0)
( 4.0 4.0  3.0)
( 5.0 4.0  3.0)
( 6.0 4.0  3.0)
( 7.0 4.0  3.0)
( 8.0 4.0  3.0)
( 9.0 4.0  3.0)
( 10.0 4.0  3.0)
( 0.0 5.0  3.0)
( 1.0 5.0  3.0)
( 2.0 5.0  3.0)
( 3.0 5.0  3.0)
( 4.0 5.0  3.0)
( 5.0 5.0  3.0)
( 6.0 5.0  3.0)
( 7.0 5.0  3.0)
( 8.0 5.0  3.0)
( 9.0 5.0  3.0)
( 10.0 5.0  3.0)
( 0.0 6.0  3.0)
( 1.0 6.0  3.0)
( 2.0 6.0  3.0)
( 3.0 6.0  3.0)
( 4.0 6.0  3.0)
( 5.0 6.0  3.0)
( 6.0 6.0  3.0)
( 7.0 6.0  3.0)
( 8.0 6.0  3.0)
( 9.0 6.0  3.0)
( 10.0 6.0  3.0)
( 0.0 7.0  3.0)
( 1.0 7.0  3.0)
( 2.0 7.0  3.0)
( 3.0 7.0  3.0)
( 4.0 7.0  3.0)
( 5.0 7.0  3.0)
( 6.0 7.0  3.0)
( 7.0 7.0  3.0)
( 8.0 7.0  3.0)
( 9.0 7.0  3.0)
( 10.0 7.0  3.0)
( 0.0 8.0  3.0)
( 1.0 8.0  3.0)
( 2.0 8.0  3.0)
( 3.0 8.0  3.0)
( 4.0 8.0  3.0)
( 5.0 8.0  3.0)
( 6.0 8.0  3.0)
( 7.0 8.0  3.0)
( 8.0 8.0  3.0)
( 9.0 8.0  3.0)
( 10.0 8.0  3.0)
( 0.0 9.0  3.0)
( 1.0 9.0  3.0)
( 2.0 9.0  3.0)
( 3.0 9.0  3.0)
( 4.0 9.0  3.0)
( 5.0 9.0  3.0)
( 6.0 9.0  3.0)
( 7.0 9.0  3.0)
( 8.0 9.0  3.0)
( 9.0 9.0  3.0)
( 10.0 9.0  3.0)
( 0.0 10.0  3.0)
( 1.0 10.0  3.0)
( 2.0 10.0  3.0)
( 3.0 10.0  3.0)
( 4.0 10.0  3.0)
( 5.0 10.0  3.0)
( 6.0 10.0  3.0)
( 7.0 10.0  3.0)
( 8.0 10.0  3.0)
( 9.0 10.0  3.0)
( 10.0 10.0  3.0)
( 0.0 11.0  3.0)
( 1.0 11.0  3.0)
( 2.0 11.0  3.0)
( 3.0 11.0  3.0)
( 4.0 11.0  3.0)
( 5.0 11.0  3.0)
( 6.0 11.0  3.0)
( 7.0 11.0  3.0)
( 8.0 11.0  3.0)
( 9.0 11.0  3.0)
( 10.0 11.0  3.0)
( 0.0 0.0  4.0)
( 1.0 0.0  4.0)
( 2.0 0.0  4.0)
( 3.0 0.0  4.0)
( 4.0 0.0  4.0)
( 5.0 0.0  4.0)
( 6.0 0.0  4.0)
( 7.0 0.0  4.0)
( 8.0 0.0  4.0)
( 9.0 0.0  4.0)
( 10.0 0.0  4.0)
( 0.0 1.0  4.0)
( 1.0 1.0  4.0)
( 2.0 1.0  4.0)
( 3.0 1.0  4.0)
( 4.0 1.0  4.0)
( 5.0 1.0  4.0)
( 6.0 1.0  4.0)
( 7.0 1.0  4.0)
( 8.0 1.0  4.0)
( 9.0 1.0  4.0)
( 10.0 1.0  4.0)
( 0.0 2.0  4.0)
( 1.0 2.0  4.0)
( 2.0 2.0  4.0)
( 3.0 2.0  4.0)
( 4.0 2.0  4.0)
( 5.0 2.0  4.0)
( 6.0 2.0  4.0)
( 7.0 2.0  4.0)
( 8.0 2.0  4.0)
( 9.0 2.0  4.0)
( 10.0 2.0  4.0)
( 0.0 3.0  4.0)
( 1.0 3.0  4.0)
( 2.0 3.0  4.0)
( 3.0 3.0  4.0)
( 4.0 3.0  4.0)
( 5.0 3.0  4.0)
( 6.0 3.0  4.0)
( 7.0 3.0  4.0)
( 8.0 3.0  4.0)
( 9.0 3.0  4.0)
( 10.0 3.0  4.0)
( 0.0 4.0  4.0)
( 1.0 4.0  4.0)
( 2.0 4.0  4.0)
( 3.0 4.0  4.0)
( 4.0 4.0  4.0)
( 5.0 4.0  4.0)
( 6.0 4.0  4.0)
( 7.0 4.0  4.0)
( 8.0 4.0  4.0)
( 9.0 4.0  4.0)
( 10.0 4.0  4.0)
( 0.0 5.0  4.0)
( 1.0 5.0  4.0)
( 2.0 5.0  4.0)
( 3.0 5.0  4.0)
( 4.0 5.0  4.0)
( 5.0 5.0  4.0)
( 6.0 5.0  4.0)
( 7.0 5.0  4.0)
( 8.0 5.0  4.0)
( 9.0 5.0  4.0)
( 10.0 5.0  4.0)
( 0.0 6.0  4.0)
( 1.0 6.0  4.0)
( 2.0 6.0  4.0)
( 3.0 6.0  4.0)
( 4.0 6.0  4.0)
( 5.0 6.0  4.0)
( 6.0 6.0  4.0)
( 7.0 6.0  4.0)
( 8.0 6.0  4.0)
( 9.0 6.0  4.0)
( 10.0 6.0  4.0)
( 0.0 7.0  4.0)
( 1.0 7.0  4.0)
( 2.0 7.0  4.0)
( 3.0 7.0  4.0)
( 4.0 7.0  4.0)
( 5.0 7.0  4.0)
( 6.0 7.0  4.0)
( 7.0 7.0  4.0)
( 8.0 7.0  4.0)
( 9.0 7.0  4.0)
( 10.0 7.0  4.0)
( 0.0 8.0  4.0)
( 1.0 8.0  4.0)
( 2.0 8.0  4.0)
( 3.0 8.0  4.0)
( 4.0 8.0  4.0)
( 5.0 8.0  4.0)
( 6.0 8.0  4.0)
( 7.0 8.0  4.0)
( 8.0 8.0  4.0)
( 9.0 8.0  4.0)
( 10.0 8.0  4.0)
( 0.0 9.0  4.0)
( 1.0 9.0  4.0)
( 2.0 9.0  4.0)
( 3.0 9.0  4.0)
( 4.0 9.0  4.0)
( 5.0 9.0  4.0)
( 6.0 9.0  4.0)
( 7.0 9.0  4.0)
( 8.0 9.0  4.0)
( 9.0 9.0  4.0)
( 10.0 9.0  4.0)
( 0.0 10.0  4.0)
( 1.0 10.0  4.0)
( 2.0 10.0  4.0)
( 3.0 10.0  4.0)
( 4.0 10.0  4.0)
( 5.0 10.0  4.0)
( 6.0 10.0  4.0)
( 7.0 10.0  4.0)
( 8.0 10.0  4.0)
( 9.0 10.0  4.0)
( 10.0 10.0  4.0)
( 0.0 11.0  4.0)
( 1.0 11.0  4.0)
( 2.0 11.0  4.0)
( 3.0 11.0  4.0)
( 4.0 11.0  4.0)
( 5.0 11.0  4.0)
( 6.0 11.0  4.0)
( 7.0 11.0  4.0)
( 8.0 11.0  4.0)
( 9.0 11.0  4.0)
( 10.0 11.0  4.0)
( 0.0 0.0  5.0)
( 1.0 0.0  5.0)
( 2.0 0.0  5.0)
( 3.0 0.0  5.0)
( 4.0 0.0  5.0)
( 5.0 0.0  5.0)
( 6.0 0.0  5.0)
( 7.0 0.0  5.0)
( 8.0 0.0  5.0)
( 9.0 0.0  5.0)
( 10.0 0.0  5.0)
( 0.0 1.0  5.0)
( 1.0 1.0  5.0)
( 2.0 1.0  5.0)
( 3.0 1.0  5.0)
( 4.0 1.0  5.0)
( 5.0 1.0  5.0)
( 6.0 1.0  5.0)
( 7.0 1.0  5.0)
( 8.0 1.0  5.0)
( 9.0 1.0  5.0)
( 10.0 1.0  5.0)
( 0.0 2.0  5.0)
( 1.0 2.0  5.0)
( 2.0 2.0  5.0)
( 3.0 2.0  5.0)
( 4.0 2.0  5.0)
( 5.0 2.0  5.0)
( 6.0 2.0  5.0)
( 7.0 2.0  5.0)
( 8.0 2.0  5.0)
( 9.0 2.0  5.0)
( 10.0 2.0  5.0)
( 0.0 3.0  5.0)
( 1.0 3.0  5.0)
( 2.0 3.0  5.0)
( 3.0 3.0  5.0)
( 4.0 3.0  5.0)
( 5.0 3.0  5.0)
( 6.0 3.0  5.0)
( 7.0 3.0  5.0)
( 8.0 3.0  5.0)
( 9.0 3.0  5.0)
( 10.0 3.0  5.0)
( 0.0 4.0  5.0)
( 1.0 4.0  5.0)
( 2.0 4.0  5.0)
( 3.0 4.0  5.0)
( 4.0 4.0  5.0)
( 5.0 4.0  5.0)
( 6.0 4.0  5.0)
( 7.0 4.0  5.0)
( 8.0 4.0  5.0)
( 9.0 4.0  5.0)
( 10.0 4.0  5.0)
( 0.0 5.0  5.0)
( 1.0 5.0  5.0)
( 2.0 5.0  5.0)
( 3.0 5.0  5.0)
( 4.0 5.0  5.0)
( 5.0 5.0  5.0)
( 6.0 5.0  5.0)
( 7.0 5.0  5.0)
( 8.0 5.0  5.0)
( 9.0 5.0  5.0)
( 10.0 5.0  5.0)
( 0.0 6.0  5.0)
( 1.0 6.0  5.0)
( 2.0 6.0  5.0)
( 3.0 6.0  5.0)
( 4.0 6.0  5.0)
( 5.0 6.0  5.0)
( 6.0 6.0  5.0)
( 7.0 6.0  5.0)
( 8.0 6.0  5.0)
( 9.0 6.0  5.0)
( 10.0 6.0  5.0)
( 0.0 7.0  5.0)
( 1.0 7.0  5.0)
( 2.0 7.0  5.0)
( 3.0 7.0  5.0)
( 4.0 7.0  5.0)
( 5.0 7.0  5.0)
( 6.0 7.0  5.0)
( 7.0 7.0  5.0)
( 8.0 7.0  5.0)
( 9.0 7.0  5.0)
( 10.0 7.0  5.0)
( 0.0 8.0  5.0)
( 1.0 8.0  5.0)
( 2.0 8.0  5.0)
( 3.0 8.0  5.0)
( 4.0 8.0  5.0)
( 5.0 8.0  5.0)
( 6.0 8.0  5.0)
( 7.0 8.0  5.0)
( 8.0 8.0  5.0)
( 9.0 8.0  5.0)
( 10.0 8.0  5.0)
( 0.0 9.0  5.0)
( 1.0 9.0  5.0)
( 2.0 9.0  5.0)
( 3.0 9.0  5.0)
( 4.0 9.0  5.0)
( 5.0 9.0  5.0)
( 6.0 9.0  5.0)
( 7.0 9.0  5.0)
( 8.0 9.0  5.0)
( 9.0 9.0  5.0)
( 10.0 9.0  5.0)
( 0.0 10.0  5.0)
( 1.0 10.0  5.0)
( 2.0 10.0  5.0)
( 3.0 10.0  5.0)
( 4.0 10.0  5.0)
( 5.0 10.0  5.0)
( 6.0 10.0  5.0)
( 7.0 10.0  5.0)
( 8.0 10.0  5.0)
( 9.0 10.0  5.0)
( 10.0 10.0  5.0)
( 0.0 11.0  5.0)
( 1.0 11.0  5.0)
( 2.0 11.0  5.0)
( 3.0 11.0  5.0)
( 4.0 11.0  5.0)
( 5.0 11.0  5.0)
( 6.0 11.0  5.0)
( 7.0 11.0  5.0)
( 8.0 11.0  5.0)
( 9.0 11.0  5.0)
( 10.0 11.0  5.0)
);

// * * * * * * * * * * * * * * * * * * * * * * * * * * * * * * * * * * * * * //
blocks
(

 //block 0
hex (0 1 12 11 132 133 144 143 )
( 10 10 10 )
SimpleGrading (1 1 1)

 //block 1
hex (1 2 13 12 133 134 145 144 )
( 10 10 10 )
SimpleGrading (1 1 1)

 //block 2
hex (2 3 14 13 134 135 146 145 )
( 10 10 10 )
SimpleGrading (1 1 1)

 //block 3
hex (3 4 15 14 135 136 147 146 )
( 10 10 10 )
SimpleGrading (1 1 1)

 //block 4
hex (4 5 16 15 136 137 148 147 )
( 10 10 10 )
SimpleGrading (1 1 1)

 //block 5
hex (5 6 17 16 137 138 149 148 )
( 10 10 10 )
SimpleGrading (1 1 1)

 //block 6
hex (6 7 18 17 138 139 150 149 )
( 10 10 10 )
SimpleGrading (1 1 1)

 //block 7
hex (7 8 19 18 139 140 151 150 )
( 10 10 10 )
SimpleGrading (1 1 1)

 //block 8
hex (8 9 20 19 140 141 152 151 )
( 10 10 10 )
SimpleGrading (1 1 1)

 //block 9
hex (9 10 21 20 141 142 153 152 )
( 10 10 10 )
SimpleGrading (1 1 1)

 //block 10
hex (141 142 153 152 273 274 285 284 )
( 10 10 10 )
SimpleGrading (1 1 1)

 //block 11
hex (273 274 285 284 405 406 417 416 )
( 10 10 10 )
SimpleGrading (1 1 1)

 //block 12
hex (405 406 417 416 537 538 549 548 )
( 10 10 10 )
SimpleGrading (1 1 1)

 //block 13
hex (537 538 549 548 669 670 681 680 )
( 10 10 10 )
SimpleGrading (1 1 1)

 //block 14
hex (536 537 548 547 668 669 680 679 )
( 10 10 10 )
SimpleGrading (1 1 1)

 //block 15
hex (535 536 547 546 667 668 679 678 )
( 10 10 10 )
SimpleGrading (1 1 1)

 //block 16
hex (534 535 546 545 666 667 678 677 )
( 10 10 10 )
SimpleGrading (1 1 1)

 //block 17
hex (533 534 545 544 665 666 677 676 )
( 10 10 10 )
SimpleGrading (1 1 1)

 //block 18
hex (532 533 544 543 664 665 676 675 )
( 10 10 10 )
SimpleGrading (1 1 1)

 //block 19
hex (531 532 543 542 663 664 675 674 )
( 10 10 10 )
SimpleGrading (1 1 1)

 //block 20
hex (530 531 542 541 662 663 674 673 )
( 10 10 10 )
SimpleGrading (1 1 1)

 //block 21
hex (529 530 541 540 661 662 673 672 )
( 10 10 10 )
SimpleGrading (1 1 1)

 //block 22
hex (528 529 540 539 660 661 672 671 )
( 10 10 10 )
SimpleGrading (1 1 1)

 //block 23
hex (539 540 551 550 671 672 683 682 )
( 10 10 10 )
SimpleGrading (1 1 1)

 //block 24
hex (550 551 562 561 682 683 694 693 )
( 10 10 10 )
SimpleGrading (1 1 1)

 //block 25
hex (561 562 573 572 693 694 705 704 )
( 10 10 10 )
SimpleGrading (1 1 1)

 //block 26
hex (572 573 584 583 704 705 716 715 )
( 10 10 10 )
SimpleGrading (1 1 1)

 //block 27
hex (583 584 595 594 715 716 727 726 )
( 10 10 10 )
SimpleGrading (1 1 1)

 //block 28
hex (594 595 606 605 726 727 738 737 )
( 10 10 10 )
SimpleGrading (1 1 1)

 //block 29
hex (605 606 617 616 737 738 749 748 )
( 10 10 10 )
SimpleGrading (1 1 1)

 //block 30
hex (616 617 628 627 748 749 760 759 )
( 10 10 10 )
SimpleGrading (1 1 1)

 //block 31
hex (627 628 639 638 759 760 771 770 )
( 10 10 10 )
SimpleGrading (1 1 1)

 //block 32
hex (638 639 650 649 770 771 782 781 )
( 10 10 10 )
SimpleGrading (1 1 1)

 //block 33
hex (440 441 452 451 572 573 584 583 )
( 10 10 10 )
SimpleGrading (1 1 1)

 //block 34
hex (308 309 320 319 440 441 452 451 )
( 10 10 10 )
SimpleGrading (1 1 1)

 //block 35
hex (176 177 188 187 308 309 320 319 )
( 10 10 10 )
SimpleGrading (1 1 1)

 //block 36
hex (44 45 56 55 176 177 188 187 )
( 10 10 10 )
SimpleGrading (1 1 1)

 //block 37
hex (55 56 67 66 187 188 199 198 )
( 10 10 10 )
SimpleGrading (1 1 1)

 //block 38
hex (66 67 78 77 198 199 210 209 )
( 10 10 10 )
SimpleGrading (1 1 1)

 //block 39
hex (77 78 89 88 209 210 221 220 )
( 10 10 10 )
SimpleGrading (1 1 1)

 //block 40
hex (88 89 100 99 220 221 232 231 )
( 10 10 10 )
SimpleGrading (1 1 1)

 //block 41
hex (99 100 111 110 231 232 243 242 )
( 10 10 10 )
SimpleGrading (1 1 1)

 //block 42
hex (110 111 122 121 242 243 254 253 )
( 10 10 10 )
SimpleGrading (1 1 1)

 //block 43
hex (33 34 45 44 165 166 177 176 )
( 10 10 10 )
SimpleGrading (1 1 1)

 //block 44
hex (22 23 34 33 154 155 166 165 )
( 10 10 10 )
SimpleGrading (1 1 1)

 //block 45
hex (11 12 23 22 143 144 155 154 )
( 10 10 10 )
SimpleGrading (1 1 1)
);

// * * * * * * * * * * * * * * * * * * * * * * * * * * * * * * * * * * * * * //
defaultPatch
{   type wall;}

patches
(
);
