/*--------------------------------*- C++ -*----------------------------------*\
  =========                 |
  \\      /  F ield         | OpenFOAM: The Open Source CFD Toolbox
   \\    /   O peration     | Website:  https://openfoam.org
    \\  /    A nd           | Version:  dev
     \\/     M anipulation  |
\*---------------------------------------------------------------------------*/
FoamFile
{
    format      ascii;
    class       dictionary;
    location    "system";
    object      fvSchemes;
}
// * * * * * * * * * * * * * * * * * * * * * * * * * * * * * * * * * * * * * //

ddtSchemes
{
    default         Euler;
}

gradSchemes
{
    default         cellLimited leastSquares 1;
}

divSchemes
{
    default                     none;

    "div\(phi,alpha.*\)"                Gauss vanLeer01;

    "div\(phir,alpha.*,alpha.*\)"       Gauss vanLeer01;

    "div\(alphaRhoPhi.*,U.*\)"          Gauss limitedLinearV 1;
    "div\(phi.*,U.*\)"                  Gauss limitedLinearV 1;

    "div\(alphaRhoPhi.*,e.*\)"          Gauss limitedLinear 1;
    "div\(alphaRhoPhi.*,K.*\)"          Gauss limitedLinear 1;
    "div\(alphaRhoPhi.*,\(p\|thermo:rho.*\)\)"    Gauss limitedLinear 1;
   


    "div\(\(\(\(alpha.*\*thermo:rho.*\)*nuEff.*\)*dev2\(T\(grad\(U.*\)\)\)\)\)" Gauss linear;
}

laplacianSchemes
{
    default         Gauss linear corrected;
}

interpolationSchemes
{
    default         linear;
}

snGradSchemes
{
    default         corrected;
}


// ************************************************************************* //
