/*--------------------------------*- C++ -*----------------------------------*\
  =========                 |
  \\      /  F ield         | OpenFOAM: The Open Source CFD Toolbox
   \\    /   O peration     | Website:  https://openfoam.org
    \\  /    A nd           | Version:  dev
     \\/     M anipulation  |
\*---------------------------------------------------------------------------*/
FoamFile
{
    format      ascii;
    class       dictionary;
    location    "system";
    object      fvSolution;
}
// * * * * * * * * * * * * * * * * * * * * * * * * * * * * * * * * * * * * * //

solvers
{
    "alpha.*"
    {
        nAlphaCorr      1;
        nAlphaSubCycles 2;
    }

    p_rgh
    {
        solver          GAMG;
        smoother        DIC;
        tolerance       1e-8;
        relTol          0;
	maxIter		10;
    }

    p_rghFinal
    {
        $p_rgh;
        relTol          0;
	maxIter		50;
    }

    "U.*"
    {
        solver          GAMG;
        smoother        symGaussSeidel;
        tolerance       1e-5;
        relTol          0;
        minIter         1;
	maxIter		50;
    }

    "e.*"
    {
        solver          GAMG;
        smoother        symGaussSeidel;
        tolerance       1e-8;
        relTol          0;
        minIter         1;
	maxIter		50;
    }
}

PIMPLE
{
    nOuterCorrectors 1;
    nCorrectors      2;
    nNonOrthogonalCorrectors 3;

}

relaxationFactors
{
    equations
    {
        ".*"            1;
    }
}


// ************************************************************************* //
