/*--------------------------------*- C++ -*----------------------------------*\
  =========                 |
  \\      /  F ield         | OpenFOAM: The Open Source CFD Toolbox
   \\    /   O peration     | Website:  https://openfoam.org
    \\  /    A nd           | Version:  9
     \\/     M anipulation  |
\*---------------------------------------------------------------------------*/
FoamFile
{
    format      ascii;
    class       dictionary;
    location    "system";
    object      controlDict;
}
// * * * * * * * * * * * * * * * * * * * * * * * * * * * * * * * * * * * * * //

application     multiphaseEulerFoam;

startFrom       startTime;

startTime       0;

stopAt          writeNow;//endTime;

endTime         100;

deltaT          0.0005;

writeControl    adjustableRunTime;

writeInterval   0.5;

purgeWrite      0;

writeFormat     ascii;

writePrecision  6;

writeCompression off;

timeFormat      general;

timePrecision   6;

runTimeModifiable yes;

adjustTimeStep  yes;//no;

maxCo           0.3;

maxDeltaT       1;

functions
{
    #includeFunc fieldAverage(U.gas, U.liquid, alpha.gas, p)
}


// ************************************************************************* //
