/*--------------------------------*- C++ -*----------------------------------*\
  =========                 |
  \\      /  F ield         | OpenFOAM: The Open Source CFD Toolbox
   \\    /   O peration     | Website:  https://openfoam.org
    \\  /    A nd           | Version:  12
     \\/     M anipulation  |
\*---------------------------------------------------------------------------*/
FoamFile
{
    format      ascii;
    class       featureEdgeMesh;
    location    "constant/triSurface";
    object      inner_rotating.eMesh;
}
// * * * * * * * * * * * * * * * * * * * * * * * * * * * * * * * * * * * * * //


// points:

72
(
(0.024 0.055 0)
(0.0236354 0.055 -0.00416756)
(0.0236354 0.018 -0.00416756)
(0.024 0.018 0)
(0.0225526 0.055 -0.00820848)
(0.0225526 0.018 -0.00820848)
(0.0207846 0.055 -0.012)
(0.0207846 0.018 -0.012)
(0.0183851 0.055 -0.0154269)
(0.0183851 0.018 -0.0154269)
(0.0154269 0.055 -0.0183851)
(0.0154269 0.018 -0.0183851)
(0.012 0.055 -0.0207846)
(0.012 0.018 -0.0207846)
(0.00820848 0.055 -0.0225526)
(0.00820848 0.018 -0.0225526)
(0.00416756 0.055 -0.0236354)
(0.00416756 0.018 -0.0236354)
(2.86152e-18 0.055 -0.024)
(2.86152e-18 0.018 -0.024)
(-0.00416756 0.055 -0.0236354)
(-0.00416756 0.018 -0.0236354)
(-0.00820848 0.055 -0.0225526)
(-0.00820848 0.018 -0.0225526)
(-0.012 0.055 -0.0207846)
(-0.012 0.018 -0.0207846)
(-0.0154269 0.055 -0.0183851)
(-0.0154269 0.018 -0.0183851)
(-0.0183851 0.055 -0.0154269)
(-0.0183851 0.018 -0.0154269)
(-0.0207846 0.055 -0.012)
(-0.0207846 0.018 -0.012)
(-0.0225526 0.055 -0.00820848)
(-0.0225526 0.018 -0.00820848)
(-0.0236354 0.055 -0.00416756)
(-0.0236354 0.018 -0.00416756)
(-0.024 0.055 -5.72304e-18)
(-0.024 0.018 -5.72304e-18)
(-0.0236354 0.055 0.00416756)
(-0.0236354 0.018 0.00416756)
(-0.0225526 0.055 0.00820848)
(-0.0225526 0.018 0.00820848)
(-0.0207846 0.055 0.012)
(-0.0207846 0.018 0.012)
(-0.0183851 0.055 0.0154269)
(-0.0183851 0.018 0.0154269)
(-0.0154269 0.055 0.0183851)
(-0.0154269 0.018 0.0183851)
(-0.012 0.055 0.0207846)
(-0.012 0.018 0.0207846)
(-0.00820848 0.055 0.0225526)
(-0.00820848 0.018 0.0225526)
(-0.00416756 0.055 0.0236354)
(-0.00416756 0.018 0.0236354)
(-8.58456e-18 0.055 0.024)
(-8.58456e-18 0.018 0.024)
(0.00416756 0.055 0.0236354)
(0.00416756 0.018 0.0236354)
(0.00820848 0.055 0.0225526)
(0.00820848 0.018 0.0225526)
(0.012 0.055 0.0207846)
(0.012 0.018 0.0207846)
(0.0154269 0.055 0.0183851)
(0.0154269 0.018 0.0183851)
(0.0183851 0.055 0.0154269)
(0.0183851 0.018 0.0154269)
(0.0207846 0.055 0.012)
(0.0207846 0.018 0.012)
(0.0225526 0.055 0.00820848)
(0.0225526 0.018 0.00820848)
(0.0236354 0.055 0.00416756)
(0.0236354 0.018 0.00416756)
)


// edges:

72
(
(0 1)
(2 3)
(1 4)
(5 2)
(4 6)
(7 5)
(6 8)
(9 7)
(8 10)
(11 9)
(10 12)
(13 11)
(12 14)
(15 13)
(14 16)
(17 15)
(16 18)
(19 17)
(18 20)
(21 19)
(20 22)
(23 21)
(22 24)
(25 23)
(24 26)
(27 25)
(26 28)
(29 27)
(28 30)
(31 29)
(30 32)
(33 31)
(32 34)
(35 33)
(34 36)
(37 35)
(36 38)
(39 37)
(38 40)
(41 39)
(40 42)
(43 41)
(42 44)
(45 43)
(44 46)
(47 45)
(46 48)
(49 47)
(48 50)
(51 49)
(50 52)
(53 51)
(52 54)
(55 53)
(54 56)
(57 55)
(56 58)
(59 57)
(58 60)
(61 59)
(60 62)
(63 61)
(62 64)
(65 63)
(64 66)
(67 65)
(66 68)
(69 67)
(68 70)
(71 69)
(70 0)
(3 71)
)

// * * * * * * * * * * * * * * * * * * * * * * * * * * * * * * * * * * * * * //


// ************************************************************************* //
