/*--------------------------------*- C++ -*----------------------------------*\
  =========                 |
  \\      /  F ield         | OpenFOAM: The Open Source CFD Toolbox
   \\    /   O peration     | Website:  https://openfoam.org
    \\  /    A nd           | Version:  12
     \\/     M anipulation  |
\*---------------------------------------------------------------------------*/
FoamFile
{
    format      ascii;
    class       featureEdgeMesh;
    location    "constant/triSurface";
    object      rotor.eMesh;
}
// * * * * * * * * * * * * * * * * * * * * * * * * * * * * * * * * * * * * * //


// points:

1472
(
(-0.00469199 0.0295 0.00912676)
(-0.00956699 0.0295 0.0175705)
(-0.00956699 0.0205 0.0175705)
(-0.00469199 0.0205 0.00912676)
(-0.00555801 0.0295 0.00862676)
(0.00956699 0.0295 0.0175705)
(0.00469199 0.0295 0.00912676)
(0.00469199 0.0205 0.00912676)
(0.00956699 0.0205 0.0175705)
(-0.010433 0.0295 0.0170705)
(-0.00555801 0.0205 0.00862676)
(-0.010433 0.0205 0.0170705)
(0.00555801 0.0295 0.00862676)
(0.010433 0.0295 0.0170705)
(0.010433 0.0205 0.0170705)
(0.00555801 0.0205 0.00862676)
(-0.01025 0.0295 0.0005)
(-0.02 0.0295 0.0005)
(-0.02 0.0205 0.0005)
(-0.01025 0.0205 0.0005)
(-0.01025 0.0295 -0.0005)
(0.02 0.0295 0.0005)
(0.01025 0.0295 0.0005)
(0.01025 0.0205 0.0005)
(0.02 0.0205 0.0005)
(-0.02 0.0295 -0.0005)
(-0.01025 0.0205 -0.0005)
(-0.02 0.0205 -0.0005)
(0.01025 0.0295 -0.0005)
(0.02 0.0295 -0.0005)
(0.02 0.0205 -0.0005)
(0.01025 0.0205 -0.0005)
(-0.00555801 0.0295 -0.00862676)
(-0.010433 0.0295 -0.0170705)
(-0.010433 0.0205 -0.0170705)
(-0.00555801 0.0205 -0.00862676)
(-0.00469199 0.0295 -0.00912676)
(0.010433 0.0295 -0.0170705)
(0.00555801 0.0295 -0.00862676)
(0.00555801 0.0205 -0.00862676)
(0.010433 0.0205 -0.0170705)
(-0.00956699 0.0295 -0.0175705)
(-0.00469199 0.0205 -0.00912676)
(-0.00956699 0.0205 -0.0175705)
(0.00469199 0.0295 -0.00912676)
(0.00956699 0.0295 -0.0175705)
(0.00956699 0.0205 -0.0175705)
(0.00469199 0.0205 -0.00912676)
(-0.00469199 0.0525 0.00912676)
(-0.00956699 0.0525 0.0175705)
(-0.00956699 0.0435 0.0175705)
(-0.00469199 0.0435 0.00912676)
(0.00956699 0.0525 0.0175705)
(0.00469199 0.0525 0.00912676)
(0.00469199 0.0435 0.00912676)
(0.00956699 0.0435 0.0175705)
(-0.00555801 0.0435 0.00862676)
(0.00555801 0.0435 0.00862676)
(-0.010433 0.0525 0.0170705)
(-0.00555801 0.0525 0.00862676)
(-0.010433 0.0435 0.0170705)
(0.00555801 0.0525 0.00862676)
(0.010433 0.0525 0.0170705)
(0.010433 0.0435 0.0170705)
(-0.01025 0.0525 0.0005)
(-0.02 0.0525 0.0005)
(-0.02 0.0435 0.0005)
(-0.01025 0.0435 0.0005)
(0.02 0.0525 0.0005)
(0.01025 0.0525 0.0005)
(0.01025 0.0435 0.0005)
(0.02 0.0435 0.0005)
(-0.01025 0.0435 -0.0005)
(0.01025 0.0435 -0.0005)
(-0.02 0.0525 -0.0005)
(-0.01025 0.0525 -0.0005)
(-0.02 0.0435 -0.0005)
(0.01025 0.0525 -0.0005)
(0.02 0.0525 -0.0005)
(0.02 0.0435 -0.0005)
(-0.00555801 0.0525 -0.00862676)
(-0.010433 0.0525 -0.0170705)
(-0.010433 0.0435 -0.0170705)
(-0.00555801 0.0435 -0.00862676)
(0.010433 0.0525 -0.0170705)
(0.00555801 0.0525 -0.00862676)
(0.00555801 0.0435 -0.00862676)
(0.010433 0.0435 -0.0170705)
(-0.00469199 0.0435 -0.00912676)
(0.00469199 0.0435 -0.00912676)
(-0.00956699 0.0525 -0.0175705)
(-0.00469199 0.0525 -0.00912676)
(-0.00956699 0.0435 -0.0175705)
(0.00469199 0.0525 -0.00912676)
(0.00956699 0.0525 -0.0175705)
(0.00956699 0.0435 -0.0175705)
(-0.00469199 0.0253 0.00912676)
(-0.00581199 0.0253 0.0110667)
(0.00581199 0.0253 0.0110667)
(0.00469199 0.0253 0.00912676)
(0.00555801 0.0253 0.00862676)
(0.00667801 0.0253 0.0105666)
(0.01249 0.0253 0.0005)
(0.01025 0.0253 0.0005)
(0.01025 0.0253 -0.0005)
(0.01249 0.0253 -0.0005)
(0.00667801 0.0253 -0.0105666)
(0.00555801 0.0253 -0.00862676)
(0.00469199 0.0253 -0.00912676)
(0.00581199 0.0253 -0.0110667)
(-0.00581199 0.0253 -0.0110667)
(-0.00469199 0.0253 -0.00912676)
(-0.00555801 0.0253 -0.00862676)
(-0.00667801 0.0253 -0.0105666)
(-0.01249 0.0253 -0.0005)
(-0.01025 0.0253 -0.0005)
(-0.01025 0.0253 0.0005)
(-0.01249 0.0253 0.0005)
(-0.00667801 0.0253 0.0105666)
(-0.00555801 0.0253 0.00862676)
(0.00581199 0.0465 0.0110667)
(-0.00581199 0.0465 0.0110667)
(-0.00469199 0.0465 0.00912676)
(-0.00555801 0.0465 0.00862676)
(-0.00667801 0.0465 0.0105666)
(-0.01249 0.0465 0.0005)
(-0.01025 0.0465 0.0005)
(-0.01025 0.0465 -0.0005)
(-0.01249 0.0465 -0.0005)
(-0.00667801 0.0465 -0.0105666)
(-0.00555801 0.0465 -0.00862676)
(-0.00469199 0.0465 -0.00912676)
(-0.00581199 0.0465 -0.0110667)
(0.00581199 0.0465 -0.0110667)
(0.00469199 0.0465 -0.00912676)
(0.00555801 0.0465 -0.00862676)
(0.00667801 0.0465 -0.0105666)
(0.01249 0.0465 -0.0005)
(0.01025 0.0465 -0.0005)
(0.01025 0.0465 0.0005)
(0.01249 0.0465 0.0005)
(0.00667801 0.0465 0.0105666)
(0.00555801 0.0465 0.00862676)
(0.00469199 0.0465 0.00912676)
(-0.00469199 0.0235 0.00912676)
(-0.00581199 0.0235 0.0110667)
(0.00581199 0.0235 0.0110667)
(0.00469199 0.0235 0.00912676)
(-0.00667801 0.0235 0.0105666)
(-0.00555801 0.0235 0.00862676)
(-0.01249 0.0235 0.0005)
(0.00555801 0.0235 0.00862676)
(0.00667801 0.0235 0.0105666)
(-0.01025 0.0235 0.0005)
(0.01249 0.0235 0.0005)
(0.01025 0.0235 0.0005)
(-0.01249 0.0235 -0.0005)
(-0.01025 0.0235 -0.0005)
(-0.00667801 0.0235 -0.0105666)
(0.01025 0.0235 -0.0005)
(0.01249 0.0235 -0.0005)
(-0.00555801 0.0235 -0.00862676)
(0.00667801 0.0235 -0.0105666)
(0.00555801 0.0235 -0.00862676)
(-0.00581199 0.0235 -0.0110667)
(-0.00469199 0.0235 -0.00912676)
(0.00581199 0.0235 -0.0110667)
(0.00469199 0.0235 -0.00912676)
(0.00581199 0.0483 0.0110667)
(-0.00581199 0.0483 0.0110667)
(-0.00469199 0.0483 0.00912676)
(0.00469199 0.0483 0.00912676)
(-0.00555801 0.0483 0.00862676)
(-0.00667801 0.0483 0.0105666)
(0.00667801 0.0483 0.0105666)
(0.00555801 0.0483 0.00862676)
(-0.01249 0.0483 0.0005)
(0.01249 0.0483 0.0005)
(-0.01025 0.0483 0.0005)
(0.01025 0.0483 0.0005)
(-0.01025 0.0483 -0.0005)
(-0.01249 0.0483 -0.0005)
(0.01249 0.0483 -0.0005)
(0.01025 0.0483 -0.0005)
(-0.00667801 0.0483 -0.0105666)
(0.00667801 0.0483 -0.0105666)
(-0.00555801 0.0483 -0.00862676)
(0.00555801 0.0483 -0.00862676)
(-0.00469199 0.0483 -0.00912676)
(-0.00581199 0.0483 -0.0110667)
(0.00581199 0.0483 -0.0110667)
(0.00469199 0.0483 -0.00912676)
(-0.00497333 0.0253 0.011468)
(-0.00410716 0.0253 0.011806)
(-0.00321826 0.0253 0.0120786)
(-0.00231156 0.0253 0.0122844)
(-0.00139207 0.0253 0.0124222)
(-0.000464881 0.0253 0.0124914)
(0.000464881 0.0253 0.0124914)
(0.00139207 0.0253 0.0124222)
(0.00231156 0.0253 0.0122844)
(0.00321826 0.0253 0.0120786)
(0.00410716 0.0253 0.011806)
(0.00497333 0.0253 0.011468)
(0.00744495 0.0253 0.010041)
(0.0081707 0.0253 0.00945989)
(0.00885125 0.0253 0.0088264)
(0.00948283 0.0253 0.00814408)
(0.0100619 0.0253 0.00741669)
(0.0105854 0.0253 0.00664828)
(0.0110503 0.0253 0.00584308)
(0.011454 0.0253 0.00500555)
(0.0117944 0.0253 0.00414033)
(0.0120695 0.0253 0.00325221)
(0.0122779 0.0253 0.00234609)
(0.0124183 0.0253 0.00142699)
(0.0124183 0.0253 -0.00142699)
(0.0122779 0.0253 -0.00234609)
(0.0120695 0.0253 -0.00325221)
(0.0117944 0.0253 -0.00414033)
(0.011454 0.0253 -0.00500555)
(0.0110503 0.0253 -0.00584308)
(0.0105854 0.0253 -0.00664828)
(0.0100619 0.0253 -0.00741669)
(0.00948283 0.0253 -0.00814408)
(0.00885125 0.0253 -0.0088264)
(0.0081707 0.0253 -0.00945989)
(0.00744495 0.0253 -0.010041)
(0.00497333 0.0253 -0.011468)
(0.00410716 0.0253 -0.011806)
(0.00321826 0.0253 -0.0120786)
(0.00231156 0.0253 -0.0122844)
(0.00139207 0.0253 -0.0124222)
(0.000464881 0.0253 -0.0124914)
(-0.000464881 0.0253 -0.0124914)
(-0.00139207 0.0253 -0.0124222)
(-0.00231156 0.0253 -0.0122844)
(-0.00321826 0.0253 -0.0120786)
(-0.00410716 0.0253 -0.011806)
(-0.00497333 0.0253 -0.011468)
(-0.00744495 0.0253 -0.010041)
(-0.0081707 0.0253 -0.00945989)
(-0.00885125 0.0253 -0.0088264)
(-0.00948283 0.0253 -0.00814408)
(-0.0100619 0.0253 -0.00741669)
(-0.0105854 0.0253 -0.00664828)
(-0.0110503 0.0253 -0.00584308)
(-0.011454 0.0253 -0.00500555)
(-0.0117944 0.0253 -0.00414033)
(-0.0120695 0.0253 -0.00325221)
(-0.0122779 0.0253 -0.00234609)
(-0.0124183 0.0253 -0.00142699)
(-0.0124183 0.0253 0.00142699)
(-0.0122779 0.0253 0.00234609)
(-0.0120695 0.0253 0.00325221)
(-0.0117944 0.0253 0.00414033)
(-0.011454 0.0253 0.00500555)
(-0.0110503 0.0253 0.00584308)
(-0.0105854 0.0253 0.00664828)
(-0.0100619 0.0253 0.00741669)
(-0.00948283 0.0253 0.00814408)
(-0.00885125 0.0253 0.0088264)
(-0.0081707 0.0253 0.00945989)
(-0.00744495 0.0253 0.010041)
(0.00497333 0.0465 0.011468)
(0.00410716 0.0465 0.011806)
(0.00321826 0.0465 0.0120786)
(0.00231156 0.0465 0.0122844)
(0.00139207 0.0465 0.0124222)
(0.000464881 0.0465 0.0124914)
(-0.000464881 0.0465 0.0124914)
(-0.00139207 0.0465 0.0124222)
(-0.00231156 0.0465 0.0122844)
(-0.00321826 0.0465 0.0120786)
(-0.00410716 0.0465 0.011806)
(-0.00497333 0.0465 0.011468)
(-0.00744495 0.0465 0.010041)
(-0.0081707 0.0465 0.00945989)
(-0.00885125 0.0465 0.0088264)
(-0.00948283 0.0465 0.00814408)
(-0.0100619 0.0465 0.00741669)
(-0.0105854 0.0465 0.00664828)
(-0.0110503 0.0465 0.00584308)
(-0.011454 0.0465 0.00500555)
(-0.0117944 0.0465 0.00414033)
(-0.0120695 0.0465 0.00325221)
(-0.0122779 0.0465 0.00234609)
(-0.0124183 0.0465 0.00142699)
(-0.0124183 0.0465 -0.00142699)
(-0.0122779 0.0465 -0.00234609)
(-0.0120695 0.0465 -0.00325221)
(-0.0117944 0.0465 -0.00414033)
(-0.011454 0.0465 -0.00500555)
(-0.0110503 0.0465 -0.00584308)
(-0.0105854 0.0465 -0.00664828)
(-0.0100619 0.0465 -0.00741669)
(-0.00948283 0.0465 -0.00814408)
(-0.00885125 0.0465 -0.0088264)
(-0.0081707 0.0465 -0.00945989)
(-0.00744495 0.0465 -0.010041)
(-0.00497333 0.0465 -0.011468)
(-0.00410716 0.0465 -0.011806)
(-0.00321826 0.0465 -0.0120786)
(-0.00231156 0.0465 -0.0122844)
(-0.00139207 0.0465 -0.0124222)
(-0.000464881 0.0465 -0.0124914)
(0.000464881 0.0465 -0.0124914)
(0.00139207 0.0465 -0.0124222)
(0.00231156 0.0465 -0.0122844)
(0.00321826 0.0465 -0.0120786)
(0.00410716 0.0465 -0.011806)
(0.00497333 0.0465 -0.011468)
(0.00744495 0.0465 -0.010041)
(0.0081707 0.0465 -0.00945989)
(0.00885125 0.0465 -0.0088264)
(0.00948283 0.0465 -0.00814408)
(0.0100619 0.0465 -0.00741669)
(0.0105854 0.0465 -0.00664828)
(0.0110503 0.0465 -0.00584308)
(0.011454 0.0465 -0.00500555)
(0.0117944 0.0465 -0.00414033)
(0.0120695 0.0465 -0.00325221)
(0.0122779 0.0465 -0.00234609)
(0.0124183 0.0465 -0.00142699)
(0.0124183 0.0465 0.00142699)
(0.0122779 0.0465 0.00234609)
(0.0120695 0.0465 0.00325221)
(0.0117944 0.0465 0.00414033)
(0.011454 0.0465 0.00500555)
(0.0110503 0.0465 0.00584308)
(0.0105854 0.0465 0.00664828)
(0.0100619 0.0465 0.00741669)
(0.00948283 0.0465 0.00814408)
(0.00885125 0.0465 0.0088264)
(0.0081707 0.0465 0.00945989)
(0.00744495 0.0465 0.010041)
(-0.00469199 0.02866 0.00912676)
(-0.00517949 0.0295 0.00997114)
(-0.00566699 0.0295 0.0108155)
(-0.00615449 0.0295 0.0116599)
(-0.00664199 0.0295 0.0125043)
(-0.00712949 0.0295 0.0133486)
(-0.00761699 0.0295 0.014193)
(-0.00810449 0.0295 0.0150374)
(-0.00859199 0.0295 0.0158818)
(-0.00907949 0.0295 0.0167261)
(-0.00956699 0.0285 0.0175705)
(-0.00956699 0.0275 0.0175705)
(-0.00956699 0.0265 0.0175705)
(-0.00956699 0.0255 0.0175705)
(-0.00956699 0.0245 0.0175705)
(-0.00956699 0.0235 0.0175705)
(-0.00956699 0.0225 0.0175705)
(-0.00956699 0.0215 0.0175705)
(-0.00907949 0.0205 0.0167261)
(-0.00859199 0.0205 0.0158818)
(-0.00810449 0.0205 0.0150374)
(-0.00761699 0.0205 0.014193)
(-0.00712949 0.0205 0.0133486)
(-0.00664199 0.0205 0.0125043)
(-0.00615449 0.0205 0.0116599)
(-0.00566699 0.0205 0.0108155)
(-0.00517949 0.0205 0.00997114)
(-0.00469199 0.0215 0.00912676)
(-0.00469199 0.0225 0.00912676)
(-0.00469199 0.02614 0.00912676)
(-0.00469199 0.02698 0.00912676)
(-0.00469199 0.02782 0.00912676)
(-0.00497333 0.0235 0.011468)
(-0.00410716 0.0235 0.011806)
(-0.00321826 0.0235 0.0120786)
(-0.00231156 0.0235 0.0122844)
(-0.00139207 0.0235 0.0124222)
(-0.000464881 0.0235 0.0124914)
(0.000464881 0.0235 0.0124914)
(0.00139207 0.0235 0.0124222)
(0.00231156 0.0235 0.0122844)
(0.00321826 0.0235 0.0120786)
(0.00410716 0.0235 0.011806)
(0.00497333 0.0235 0.011468)
(-0.00555801 0.02782 0.00862676)
(-0.00555801 0.02866 0.00862676)
(-0.00555801 0.02614 0.00862676)
(-0.00555801 0.02698 0.00862676)
(0.00907949 0.0295 0.0167261)
(0.00956699 0.0285 0.0175705)
(0.00859199 0.0295 0.0158818)
(0.00810449 0.0295 0.0150374)
(0.00761699 0.0295 0.014193)
(0.00712949 0.0295 0.0133486)
(0.00664199 0.0295 0.0125043)
(0.00615449 0.0295 0.0116599)
(0.00566699 0.0295 0.0108155)
(0.00469199 0.02866 0.00912676)
(0.00517949 0.0295 0.00997114)
(0.00469199 0.02782 0.00912676)
(0.00469199 0.02698 0.00912676)
(0.00469199 0.02614 0.00912676)
(0.00469199 0.0225 0.00912676)
(0.00469199 0.0215 0.00912676)
(0.00517949 0.0205 0.00997114)
(0.00566699 0.0205 0.0108155)
(0.00615449 0.0205 0.0116599)
(0.00664199 0.0205 0.0125043)
(0.00712949 0.0205 0.0133486)
(0.00761699 0.0205 0.014193)
(0.00810449 0.0205 0.0150374)
(0.00859199 0.0205 0.0158818)
(0.00907949 0.0205 0.0167261)
(0.00956699 0.0215 0.0175705)
(0.00956699 0.0225 0.0175705)
(0.00956699 0.0235 0.0175705)
(0.00956699 0.0245 0.0175705)
(0.00956699 0.0255 0.0175705)
(0.00956699 0.0265 0.0175705)
(0.00956699 0.0275 0.0175705)
(-0.00994551 0.0295 0.0162261)
(-0.010433 0.0285 0.0170705)
(-0.00945801 0.0295 0.0153818)
(-0.00897051 0.0295 0.0145374)
(-0.00848301 0.0295 0.013693)
(-0.00799551 0.0295 0.0128486)
(-0.00750801 0.0295 0.0120043)
(-0.00702051 0.0295 0.0111599)
(-0.00653301 0.0295 0.0103155)
(-0.00604551 0.0295 0.00947114)
(-0.00555801 0.0225 0.00862676)
(-0.00555801 0.0215 0.00862676)
(-0.00604551 0.0205 0.00947114)
(-0.00653301 0.0205 0.0103155)
(-0.00702051 0.0205 0.0111599)
(-0.00750801 0.0205 0.0120043)
(-0.00799551 0.0205 0.0128486)
(-0.00848301 0.0205 0.013693)
(-0.00897051 0.0205 0.0145374)
(-0.00945801 0.0205 0.0153818)
(-0.00994551 0.0205 0.0162261)
(-0.010433 0.0215 0.0170705)
(-0.010433 0.0225 0.0170705)
(-0.010433 0.0235 0.0170705)
(-0.010433 0.0245 0.0170705)
(-0.010433 0.0255 0.0170705)
(-0.010433 0.0265 0.0170705)
(-0.010433 0.0275 0.0170705)
(0.00555801 0.02866 0.00862676)
(0.00555801 0.02782 0.00862676)
(0.00555801 0.02698 0.00862676)
(0.00555801 0.02614 0.00862676)
(-0.00744495 0.0235 0.010041)
(-0.0124183 0.0235 0.00142699)
(-0.0122779 0.0235 0.00234609)
(-0.0120695 0.0235 0.00325221)
(-0.0117944 0.0235 0.00414033)
(-0.011454 0.0235 0.00500555)
(-0.0110503 0.0235 0.00584308)
(-0.0105854 0.0235 0.00664828)
(-0.0100619 0.0235 0.00741669)
(-0.00948283 0.0235 0.00814408)
(-0.00885125 0.0235 0.0088264)
(-0.0081707 0.0235 0.00945989)
(0.00604551 0.0295 0.00947114)
(0.00653301 0.0295 0.0103155)
(0.00702051 0.0295 0.0111599)
(0.00750801 0.0295 0.0120043)
(0.00799551 0.0295 0.0128486)
(0.00848301 0.0295 0.013693)
(0.00897051 0.0295 0.0145374)
(0.00945801 0.0295 0.0153818)
(0.00994551 0.0295 0.0162261)
(0.010433 0.0285 0.0170705)
(0.010433 0.0275 0.0170705)
(0.010433 0.0265 0.0170705)
(0.010433 0.0255 0.0170705)
(0.010433 0.0245 0.0170705)
(0.010433 0.0235 0.0170705)
(0.010433 0.0225 0.0170705)
(0.010433 0.0215 0.0170705)
(0.00994551 0.0205 0.0162261)
(0.00945801 0.0205 0.0153818)
(0.00897051 0.0205 0.0145374)
(0.00848301 0.0205 0.013693)
(0.00799551 0.0205 0.0128486)
(0.00750801 0.0205 0.0120043)
(0.00702051 0.0205 0.0111599)
(0.00653301 0.0205 0.0103155)
(0.00604551 0.0205 0.00947114)
(0.00555801 0.0215 0.00862676)
(0.00555801 0.0225 0.00862676)
(-0.01025 0.02866 0.0005)
(-0.011225 0.0295 0.0005)
(-0.0122 0.0295 0.0005)
(-0.013175 0.0295 0.0005)
(-0.01415 0.0295 0.0005)
(-0.015125 0.0295 0.0005)
(-0.0161 0.0295 0.0005)
(-0.017075 0.0295 0.0005)
(-0.01805 0.0295 0.0005)
(-0.019025 0.0295 0.0005)
(-0.02 0.0285 0.0005)
(-0.02 0.0275 0.0005)
(-0.02 0.0265 0.0005)
(-0.02 0.0255 0.0005)
(-0.02 0.0245 0.0005)
(-0.02 0.0235 0.0005)
(-0.02 0.0225 0.0005)
(-0.02 0.0215 0.0005)
(-0.019025 0.0205 0.0005)
(-0.01805 0.0205 0.0005)
(-0.017075 0.0205 0.0005)
(-0.0161 0.0205 0.0005)
(-0.015125 0.0205 0.0005)
(-0.01415 0.0205 0.0005)
(-0.013175 0.0205 0.0005)
(-0.0122 0.0205 0.0005)
(-0.011225 0.0205 0.0005)
(-0.01025 0.0215 0.0005)
(-0.01025 0.0225 0.0005)
(-0.01025 0.02614 0.0005)
(-0.01025 0.02698 0.0005)
(-0.01025 0.02782 0.0005)
(0.00744495 0.0235 0.010041)
(0.0081707 0.0235 0.00945989)
(0.00885125 0.0235 0.0088264)
(0.00948283 0.0235 0.00814408)
(0.0100619 0.0235 0.00741669)
(0.0105854 0.0235 0.00664828)
(0.0110503 0.0235 0.00584308)
(0.011454 0.0235 0.00500555)
(0.0117944 0.0235 0.00414033)
(0.0120695 0.0235 0.00325221)
(0.0122779 0.0235 0.00234609)
(0.0124183 0.0235 0.00142699)
(-0.01025 0.02782 -0.0005)
(-0.01025 0.02866 -0.0005)
(-0.01025 0.02614 -0.0005)
(-0.01025 0.02698 -0.0005)
(0.019025 0.0295 0.0005)
(0.02 0.0285 0.0005)
(0.01805 0.0295 0.0005)
(0.017075 0.0295 0.0005)
(0.0161 0.0295 0.0005)
(0.015125 0.0295 0.0005)
(0.01415 0.0295 0.0005)
(0.013175 0.0295 0.0005)
(0.0122 0.0295 0.0005)
(0.01025 0.02866 0.0005)
(0.011225 0.0295 0.0005)
(0.01025 0.02782 0.0005)
(0.01025 0.02698 0.0005)
(0.01025 0.02614 0.0005)
(0.01025 0.0225 0.0005)
(0.01025 0.0215 0.0005)
(0.011225 0.0205 0.0005)
(0.0122 0.0205 0.0005)
(0.013175 0.0205 0.0005)
(0.01415 0.0205 0.0005)
(0.015125 0.0205 0.0005)
(0.0161 0.0205 0.0005)
(0.017075 0.0205 0.0005)
(0.01805 0.0205 0.0005)
(0.019025 0.0205 0.0005)
(0.02 0.0215 0.0005)
(0.02 0.0225 0.0005)
(0.02 0.0235 0.0005)
(0.02 0.0245 0.0005)
(0.02 0.0255 0.0005)
(0.02 0.0265 0.0005)
(0.02 0.0275 0.0005)
(-0.019025 0.0295 -0.0005)
(-0.02 0.0285 -0.0005)
(-0.01805 0.0295 -0.0005)
(-0.017075 0.0295 -0.0005)
(-0.0161 0.0295 -0.0005)
(-0.015125 0.0295 -0.0005)
(-0.01415 0.0295 -0.0005)
(-0.013175 0.0295 -0.0005)
(-0.0122 0.0295 -0.0005)
(-0.011225 0.0295 -0.0005)
(-0.01025 0.0225 -0.0005)
(-0.01025 0.0215 -0.0005)
(-0.011225 0.0205 -0.0005)
(-0.0122 0.0205 -0.0005)
(-0.013175 0.0205 -0.0005)
(-0.01415 0.0205 -0.0005)
(-0.015125 0.0205 -0.0005)
(-0.0161 0.0205 -0.0005)
(-0.017075 0.0205 -0.0005)
(-0.01805 0.0205 -0.0005)
(-0.019025 0.0205 -0.0005)
(-0.02 0.0215 -0.0005)
(-0.02 0.0225 -0.0005)
(-0.02 0.0235 -0.0005)
(-0.02 0.0245 -0.0005)
(-0.02 0.0255 -0.0005)
(-0.02 0.0265 -0.0005)
(-0.02 0.0275 -0.0005)
(0.01025 0.02866 -0.0005)
(0.01025 0.02782 -0.0005)
(0.01025 0.02698 -0.0005)
(0.01025 0.02614 -0.0005)
(-0.0124183 0.0235 -0.00142699)
(-0.00744495 0.0235 -0.010041)
(-0.0081707 0.0235 -0.00945989)
(-0.00885125 0.0235 -0.0088264)
(-0.00948283 0.0235 -0.00814408)
(-0.0100619 0.0235 -0.00741669)
(-0.0105854 0.0235 -0.00664828)
(-0.0110503 0.0235 -0.00584308)
(-0.011454 0.0235 -0.00500555)
(-0.0117944 0.0235 -0.00414033)
(-0.0120695 0.0235 -0.00325221)
(-0.0122779 0.0235 -0.00234609)
(0.011225 0.0295 -0.0005)
(0.0122 0.0295 -0.0005)
(0.013175 0.0295 -0.0005)
(0.01415 0.0295 -0.0005)
(0.015125 0.0295 -0.0005)
(0.0161 0.0295 -0.0005)
(0.017075 0.0295 -0.0005)
(0.01805 0.0295 -0.0005)
(0.019025 0.0295 -0.0005)
(0.02 0.0285 -0.0005)
(0.02 0.0275 -0.0005)
(0.02 0.0265 -0.0005)
(0.02 0.0255 -0.0005)
(0.02 0.0245 -0.0005)
(0.02 0.0235 -0.0005)
(0.02 0.0225 -0.0005)
(0.02 0.0215 -0.0005)
(0.019025 0.0205 -0.0005)
(0.01805 0.0205 -0.0005)
(0.017075 0.0205 -0.0005)
(0.0161 0.0205 -0.0005)
(0.015125 0.0205 -0.0005)
(0.01415 0.0205 -0.0005)
(0.013175 0.0205 -0.0005)
(0.0122 0.0205 -0.0005)
(0.011225 0.0205 -0.0005)
(0.01025 0.0215 -0.0005)
(0.01025 0.0225 -0.0005)
(-0.00555801 0.02866 -0.00862676)
(-0.00604551 0.0295 -0.00947114)
(-0.00653301 0.0295 -0.0103155)
(-0.00702051 0.0295 -0.0111599)
(-0.00750801 0.0295 -0.0120043)
(-0.00799551 0.0295 -0.0128486)
(-0.00848301 0.0295 -0.013693)
(-0.00897051 0.0295 -0.0145374)
(-0.00945801 0.0295 -0.0153818)
(-0.00994551 0.0295 -0.0162261)
(-0.010433 0.0285 -0.0170705)
(-0.010433 0.0275 -0.0170705)
(-0.010433 0.0265 -0.0170705)
(-0.010433 0.0255 -0.0170705)
(-0.010433 0.0245 -0.0170705)
(-0.010433 0.0235 -0.0170705)
(-0.010433 0.0225 -0.0170705)
(-0.010433 0.0215 -0.0170705)
(-0.00994551 0.0205 -0.0162261)
(-0.00945801 0.0205 -0.0153818)
(-0.00897051 0.0205 -0.0145374)
(-0.00848301 0.0205 -0.013693)
(-0.00799551 0.0205 -0.0128486)
(-0.00750801 0.0205 -0.0120043)
(-0.00702051 0.0205 -0.0111599)
(-0.00653301 0.0205 -0.0103155)
(-0.00604551 0.0205 -0.00947114)
(-0.00555801 0.0215 -0.00862676)
(-0.00555801 0.0225 -0.00862676)
(-0.00555801 0.02614 -0.00862676)
(-0.00555801 0.02698 -0.00862676)
(-0.00555801 0.02782 -0.00862676)
(0.0124183 0.0235 -0.00142699)
(0.0122779 0.0235 -0.00234609)
(0.0120695 0.0235 -0.00325221)
(0.0117944 0.0235 -0.00414033)
(0.011454 0.0235 -0.00500555)
(0.0110503 0.0235 -0.00584308)
(0.0105854 0.0235 -0.00664828)
(0.0100619 0.0235 -0.00741669)
(0.00948283 0.0235 -0.00814408)
(0.00885125 0.0235 -0.0088264)
(0.0081707 0.0235 -0.00945989)
(0.00744495 0.0235 -0.010041)
(-0.00469199 0.02782 -0.00912676)
(-0.00469199 0.02866 -0.00912676)
(-0.00469199 0.02614 -0.00912676)
(-0.00469199 0.02698 -0.00912676)
(0.00994551 0.0295 -0.0162261)
(0.010433 0.0285 -0.0170705)
(0.00945801 0.0295 -0.0153818)
(0.00897051 0.0295 -0.0145374)
(0.00848301 0.0295 -0.013693)
(0.00799551 0.0295 -0.0128486)
(0.00750801 0.0295 -0.0120043)
(0.00702051 0.0295 -0.0111599)
(0.00653301 0.0295 -0.0103155)
(0.00555801 0.02866 -0.00862676)
(0.00604551 0.0295 -0.00947114)
(0.00555801 0.02782 -0.00862676)
(0.00555801 0.02698 -0.00862676)
(0.00555801 0.02614 -0.00862676)
(0.00555801 0.0225 -0.00862676)
(0.00555801 0.0215 -0.00862676)
(0.00604551 0.0205 -0.00947114)
(0.00653301 0.0205 -0.0103155)
(0.00702051 0.0205 -0.0111599)
(0.00750801 0.0205 -0.0120043)
(0.00799551 0.0205 -0.0128486)
(0.00848301 0.0205 -0.013693)
(0.00897051 0.0205 -0.0145374)
(0.00945801 0.0205 -0.0153818)
(0.00994551 0.0205 -0.0162261)
(0.010433 0.0215 -0.0170705)
(0.010433 0.0225 -0.0170705)
(0.010433 0.0235 -0.0170705)
(0.010433 0.0245 -0.0170705)
(0.010433 0.0255 -0.0170705)
(0.010433 0.0265 -0.0170705)
(0.010433 0.0275 -0.0170705)
(-0.00907949 0.0295 -0.0167261)
(-0.00956699 0.0285 -0.0175705)
(-0.00859199 0.0295 -0.0158818)
(-0.00810449 0.0295 -0.0150374)
(-0.00761699 0.0295 -0.014193)
(-0.00712949 0.0295 -0.0133486)
(-0.00664199 0.0295 -0.0125043)
(-0.00615449 0.0295 -0.0116599)
(-0.00566699 0.0295 -0.0108155)
(-0.00517949 0.0295 -0.00997114)
(-0.00469199 0.0225 -0.00912676)
(-0.00469199 0.0215 -0.00912676)
(-0.00517949 0.0205 -0.00997114)
(-0.00566699 0.0205 -0.0108155)
(-0.00615449 0.0205 -0.0116599)
(-0.00664199 0.0205 -0.0125043)
(-0.00712949 0.0205 -0.0133486)
(-0.00761699 0.0205 -0.014193)
(-0.00810449 0.0205 -0.0150374)
(-0.00859199 0.0205 -0.0158818)
(-0.00907949 0.0205 -0.0167261)
(-0.00956699 0.0215 -0.0175705)
(-0.00956699 0.0225 -0.0175705)
(-0.00956699 0.0235 -0.0175705)
(-0.00956699 0.0245 -0.0175705)
(-0.00956699 0.0255 -0.0175705)
(-0.00956699 0.0265 -0.0175705)
(-0.00956699 0.0275 -0.0175705)
(0.00469199 0.02866 -0.00912676)
(0.00469199 0.02782 -0.00912676)
(0.00469199 0.02698 -0.00912676)
(0.00469199 0.02614 -0.00912676)
(0.00497333 0.0235 -0.011468)
(0.00410716 0.0235 -0.011806)
(0.00321826 0.0235 -0.0120786)
(0.00231156 0.0235 -0.0122844)
(0.00139207 0.0235 -0.0124222)
(0.000464881 0.0235 -0.0124914)
(-0.000464881 0.0235 -0.0124914)
(-0.00139207 0.0235 -0.0124222)
(-0.00231156 0.0235 -0.0122844)
(-0.00321826 0.0235 -0.0120786)
(-0.00410716 0.0235 -0.011806)
(-0.00497333 0.0235 -0.011468)
(0.00517949 0.0295 -0.00997114)
(0.00566699 0.0295 -0.0108155)
(0.00615449 0.0295 -0.0116599)
(0.00664199 0.0295 -0.0125043)
(0.00712949 0.0295 -0.0133486)
(0.00761699 0.0295 -0.014193)
(0.00810449 0.0295 -0.0150374)
(0.00859199 0.0295 -0.0158818)
(0.00907949 0.0295 -0.0167261)
(0.00956699 0.0285 -0.0175705)
(0.00956699 0.0275 -0.0175705)
(0.00956699 0.0265 -0.0175705)
(0.00956699 0.0255 -0.0175705)
(0.00956699 0.0245 -0.0175705)
(0.00956699 0.0235 -0.0175705)
(0.00956699 0.0225 -0.0175705)
(0.00956699 0.0215 -0.0175705)
(0.00907949 0.0205 -0.0167261)
(0.00859199 0.0205 -0.0158818)
(0.00810449 0.0205 -0.0150374)
(0.00761699 0.0205 -0.014193)
(0.00712949 0.0205 -0.0133486)
(0.00664199 0.0205 -0.0125043)
(0.00615449 0.0205 -0.0116599)
(0.00566699 0.0205 -0.0108155)
(0.00517949 0.0205 -0.00997114)
(0.00469199 0.0215 -0.00912676)
(0.00469199 0.0225 -0.00912676)
(0.00497333 0.0483 0.011468)
(0.00410716 0.0483 0.011806)
(0.00321826 0.0483 0.0120786)
(0.00231156 0.0483 0.0122844)
(0.00139207 0.0483 0.0124222)
(0.000464881 0.0483 0.0124914)
(-0.000464881 0.0483 0.0124914)
(-0.00139207 0.0483 0.0124222)
(-0.00231156 0.0483 0.0122844)
(-0.00321826 0.0483 0.0120786)
(-0.00410716 0.0483 0.011806)
(-0.00497333 0.0483 0.011468)
(-0.00517949 0.0525 0.00997114)
(-0.00469199 0.05166 0.00912676)
(-0.00566699 0.0525 0.0108155)
(-0.00615449 0.0525 0.0116599)
(-0.00664199 0.0525 0.0125043)
(-0.00712949 0.0525 0.0133486)
(-0.00761699 0.0525 0.014193)
(-0.00810449 0.0525 0.0150374)
(-0.00859199 0.0525 0.0158818)
(-0.00907949 0.0525 0.0167261)
(-0.00956699 0.0515 0.0175705)
(-0.00956699 0.0505 0.0175705)
(-0.00956699 0.0495 0.0175705)
(-0.00956699 0.0485 0.0175705)
(-0.00956699 0.0475 0.0175705)
(-0.00956699 0.0465 0.0175705)
(-0.00956699 0.0455 0.0175705)
(-0.00956699 0.0445 0.0175705)
(-0.00907949 0.0435 0.0167261)
(-0.00859199 0.0435 0.0158818)
(-0.00810449 0.0435 0.0150374)
(-0.00761699 0.0435 0.014193)
(-0.00712949 0.0435 0.0133486)
(-0.00664199 0.0435 0.0125043)
(-0.00615449 0.0435 0.0116599)
(-0.00566699 0.0435 0.0108155)
(-0.00517949 0.0435 0.00997114)
(-0.00469199 0.0445 0.00912676)
(-0.00469199 0.0455 0.00912676)
(-0.00469199 0.04914 0.00912676)
(-0.00469199 0.04998 0.00912676)
(-0.00469199 0.05082 0.00912676)
(0.00907949 0.0525 0.0167261)
(0.00956699 0.0515 0.0175705)
(0.00859199 0.0525 0.0158818)
(0.00810449 0.0525 0.0150374)
(0.00761699 0.0525 0.014193)
(0.00712949 0.0525 0.0133486)
(0.00664199 0.0525 0.0125043)
(0.00615449 0.0525 0.0116599)
(0.00566699 0.0525 0.0108155)
(0.00517949 0.0525 0.00997114)
(0.00469199 0.05166 0.00912676)
(0.00469199 0.05082 0.00912676)
(0.00469199 0.04998 0.00912676)
(0.00469199 0.04914 0.00912676)
(0.00469199 0.0455 0.00912676)
(0.00469199 0.0445 0.00912676)
(0.00517949 0.0435 0.00997114)
(0.00566699 0.0435 0.0108155)
(0.00615449 0.0435 0.0116599)
(0.00664199 0.0435 0.0125043)
(0.00712949 0.0435 0.0133486)
(0.00761699 0.0435 0.014193)
(0.00810449 0.0435 0.0150374)
(0.00859199 0.0435 0.0158818)
(0.00907949 0.0435 0.0167261)
(0.00956699 0.0445 0.0175705)
(0.00956699 0.0455 0.0175705)
(0.00956699 0.0465 0.0175705)
(0.00956699 0.0475 0.0175705)
(0.00956699 0.0485 0.0175705)
(0.00956699 0.0495 0.0175705)
(0.00956699 0.0505 0.0175705)
(-0.00555801 0.0445 0.00862676)
(-0.00555801 0.0455 0.00862676)
(0.00555801 0.0455 0.00862676)
(0.00555801 0.0445 0.00862676)
(-0.00994551 0.0525 0.0162261)
(-0.010433 0.0515 0.0170705)
(-0.00945801 0.0525 0.0153818)
(-0.00897051 0.0525 0.0145374)
(-0.00848301 0.0525 0.013693)
(-0.00799551 0.0525 0.0128486)
(-0.00750801 0.0525 0.0120043)
(-0.00702051 0.0525 0.0111599)
(-0.00653301 0.0525 0.0103155)
(-0.00604551 0.0525 0.00947114)
(-0.00555801 0.05166 0.00862676)
(-0.00555801 0.05082 0.00862676)
(-0.00555801 0.04998 0.00862676)
(-0.00555801 0.04914 0.00862676)
(-0.00604551 0.0435 0.00947114)
(-0.00653301 0.0435 0.0103155)
(-0.00702051 0.0435 0.0111599)
(-0.00750801 0.0435 0.0120043)
(-0.00799551 0.0435 0.0128486)
(-0.00848301 0.0435 0.013693)
(-0.00897051 0.0435 0.0145374)
(-0.00945801 0.0435 0.0153818)
(-0.00994551 0.0435 0.0162261)
(-0.010433 0.0445 0.0170705)
(-0.010433 0.0455 0.0170705)
(-0.010433 0.0465 0.0170705)
(-0.010433 0.0475 0.0170705)
(-0.010433 0.0485 0.0170705)
(-0.010433 0.0495 0.0170705)
(-0.010433 0.0505 0.0170705)
(0.00604551 0.0525 0.00947114)
(0.00555801 0.05166 0.00862676)
(0.00653301 0.0525 0.0103155)
(0.00702051 0.0525 0.0111599)
(0.00750801 0.0525 0.0120043)
(0.00799551 0.0525 0.0128486)
(0.00848301 0.0525 0.013693)
(0.00897051 0.0525 0.0145374)
(0.00945801 0.0525 0.0153818)
(0.00994551 0.0525 0.0162261)
(0.010433 0.0515 0.0170705)
(0.010433 0.0505 0.0170705)
(0.010433 0.0495 0.0170705)
(0.010433 0.0485 0.0170705)
(0.010433 0.0475 0.0170705)
(0.010433 0.0465 0.0170705)
(0.010433 0.0455 0.0170705)
(0.010433 0.0445 0.0170705)
(0.00994551 0.0435 0.0162261)
(0.00945801 0.0435 0.0153818)
(0.00897051 0.0435 0.0145374)
(0.00848301 0.0435 0.013693)
(0.00799551 0.0435 0.0128486)
(0.00750801 0.0435 0.0120043)
(0.00702051 0.0435 0.0111599)
(0.00653301 0.0435 0.0103155)
(0.00604551 0.0435 0.00947114)
(0.00555801 0.04914 0.00862676)
(0.00555801 0.04998 0.00862676)
(0.00555801 0.05082 0.00862676)
(-0.00744495 0.0483 0.010041)
(-0.0081707 0.0483 0.00945989)
(-0.00885125 0.0483 0.0088264)
(-0.00948283 0.0483 0.00814408)
(-0.0100619 0.0483 0.00741669)
(-0.0105854 0.0483 0.00664828)
(-0.0110503 0.0483 0.00584308)
(-0.011454 0.0483 0.00500555)
(-0.0117944 0.0483 0.00414033)
(-0.0120695 0.0483 0.00325221)
(-0.0122779 0.0483 0.00234609)
(-0.0124183 0.0483 0.00142699)
(0.0124183 0.0483 0.00142699)
(0.0122779 0.0483 0.00234609)
(0.0120695 0.0483 0.00325221)
(0.0117944 0.0483 0.00414033)
(0.011454 0.0483 0.00500555)
(0.0110503 0.0483 0.00584308)
(0.0105854 0.0483 0.00664828)
(0.0100619 0.0483 0.00741669)
(0.00948283 0.0483 0.00814408)
(0.00885125 0.0483 0.0088264)
(0.0081707 0.0483 0.00945989)
(0.00744495 0.0483 0.010041)
(-0.011225 0.0525 0.0005)
(-0.01025 0.05166 0.0005)
(-0.0122 0.0525 0.0005)
(-0.013175 0.0525 0.0005)
(-0.01415 0.0525 0.0005)
(-0.015125 0.0525 0.0005)
(-0.0161 0.0525 0.0005)
(-0.017075 0.0525 0.0005)
(-0.01805 0.0525 0.0005)
(-0.019025 0.0525 0.0005)
(-0.02 0.0515 0.0005)
(-0.02 0.0505 0.0005)
(-0.02 0.0495 0.0005)
(-0.02 0.0485 0.0005)
(-0.02 0.0475 0.0005)
(-0.02 0.0465 0.0005)
(-0.02 0.0455 0.0005)
(-0.02 0.0445 0.0005)
(-0.019025 0.0435 0.0005)
(-0.01805 0.0435 0.0005)
(-0.017075 0.0435 0.0005)
(-0.0161 0.0435 0.0005)
(-0.015125 0.0435 0.0005)
(-0.01415 0.0435 0.0005)
(-0.013175 0.0435 0.0005)
(-0.0122 0.0435 0.0005)
(-0.011225 0.0435 0.0005)
(-0.01025 0.0445 0.0005)
(-0.01025 0.0455 0.0005)
(-0.01025 0.04914 0.0005)
(-0.01025 0.04998 0.0005)
(-0.01025 0.05082 0.0005)
(0.019025 0.0525 0.0005)
(0.02 0.0515 0.0005)
(0.01805 0.0525 0.0005)
(0.017075 0.0525 0.0005)
(0.0161 0.0525 0.0005)
(0.015125 0.0525 0.0005)
(0.01415 0.0525 0.0005)
(0.013175 0.0525 0.0005)
(0.0122 0.0525 0.0005)
(0.011225 0.0525 0.0005)