/*--------------------------------*- C++ -*----------------------------------*\
| =========                 |                                                 |
| \\      /  F ield         | OpenFOAM: The Open Source CFD Toolbox           |
|  \\    /   O peration     | Version:  3.0.0                                 |
|   \\  /    A nd           | Web:      www.OpenFOAM.org                      |
|    \\/     M anipulation  |                                                 |
\*---------------------------------------------------------------------------*/
FoamFile
{
    version     2.0;
    format      ascii;
    class       volScalarField;
    object      p;
}
// * * * * * * * * * * * * * * * * * * * * * * * * * * * * * * * * * * * * * //

dimensions          [1 -1 -2 0 0 0 0];

internalField       uniform 1e5;

boundaryField
{
    cyl2
    {
        type               calculated;
        value              $internalField;
    }
    cyl4
    {
        type               calculated;
        value              $internalField;
    }
    cyl1
    {
        type               calculated;
        value              $internalField;
    }
    cyl3
    {
        type               calculated;
        value              $internalField;
    }
    outlet
    {
        type               calculated;
        value              $internalField;
    }
    walls
    {
        type               calculated;
        value              $internalField;
    }
    pipes
    {
        type               calculated;
        value              $internalField;
    }
}

// * * * * * * * * * * * * * * * * * * * * * * * * * * * * * * * * * * * * * //
