/*--------------------------------*- C++ -*----------------------------------*\
| =========                 |                                                 |
| \\      /  F ield         | OpenFOAM: The Open Source CFD Toolbox           |
|  \\    /   O peration     | Version:  3.0.0                                 |
|   \\  /    A nd           | Web:      www.OpenFOAM.org                      |
|    \\/     M anipulation  |                                                 |
\*---------------------------------------------------------------------------*/
FoamFile
{
    version     2.0;
    format      ascii;
    class       volScalarField;
    object      T.gas;
}
// * * * * * * * * * * * * * * * * * * * * * * * * * * * * * * * * * * * * * //

#include "../constant/globalTransport"

dimensions          [0 0 0 1 0 0 0];

internalField       uniform $Temp;

boundaryField
{
    cyl1
    {
        type               zeroGradient;
    }
    cyl3
    {
        type               zeroGradient;
    }
    cyl2
    {
        type               fixedValue;
        value              $internalField;
    }
    cyl4
    {
        type               fixedValue;
        value              $internalField;
    }
    walls
    {
        type               zeroGradient;
    }
    pipes
    {
        type               zeroGradient;
    }
    outlet
    {
        type               inletOutlet;
        phi                phi.gas;
        inletValue         $internalField;
        value              $internalField;
    }
}

// * * * * * * * * * * * * * * * * * * * * * * * * * * * * * * * * * * * * * //
