/*--------------------------------*- C++ -*----------------------------------*\
  =========                 |
  \\      /  F ield         | OpenFOAM: The Open Source CFD Toolbox
   \\    /   O peration     | Website:  https://openfoam.org
    \\  /    A nd           | Version:  9
     \\/     M anipulation  |
\*---------------------------------------------------------------------------*/
FoamFile
{
    format      ascii;
    class       dictionary;
    object      fvSchemes;
}
// * * * * * * * * * * * * * * * * * * * * * * * * * * * * * * * * * * * * * //

ddtSchemes
{
    default         Euler;
}

gradSchemes
{
    default         Gauss linear;
    limited         cellLimited Gauss linear 1;
}

divSchemes
{
    default         none;

    "div\(phi,alpha.*\)"            Gauss upwind;
    "div\(phir,alpha.*,alpha.*\)"   Gauss upwind;

    "div\(alphaRhoPhi.*,U.*\)"      Gauss upwind;
    "div\(phi.*,U.*\)"              Gauss upwind;
    "div\(alphaRhoPhi.*,Yi\)"       Gauss upwind;
    "div\(alphaRhoPhi.*,K.*\)"      Gauss upwind;
    "div\(alphaRhoPhi.*,(h|e).*\)"  Gauss upwind;
    "div\(alphaRhoPhi.*,(k|epsilon|omega).*\)"    Gauss upwind;
    "div\(alphaPhi.*,f.*\)"         Gauss upwind;
    "div\(alphaRhoPhi.*,\(p\|thermo:rho.*\)\)"    Gauss upwind;

    "div\(\(\(\(alpha.*\*thermo:rho.*\)*nuEff.*\)*dev2\(T\(grad\(U.*\)\)\)\)\)" Gauss linear;
    "div\(phim,(k|epsilon)m\)"      Gauss upwind; //limitedLinear 1;
}

laplacianSchemes
{
    default         Gauss linear uncorrected;
}

interpolationSchemes
{
    default         linear;
}

wallDist
{
    method          Poisson;
    nRequired       true;
}

// ************************************************************************* //
