/*--------------------------------*- C++ -*----------------------------------*\
  =========                 |
  \\      /  F ield         | OpenFOAM: The Open Source CFD Toolbox
   \\    /   O peration     | Website:  https://openfoam.org
    \\  /    A nd           | Version:  12
     \\/     M anipulation  |
\*---------------------------------------------------------------------------*/
FoamFile
{
    format      ascii;
    class       dictionary;
    location    "system";
    object      controlDict;
}
// * * * * * * * * * * * * * * * * * * * * * * * * * * * * * * * * * * * * * //

libs ( "libbirdmultiphaseEuler.so" );

solver          birdmultiphaseEuler;

startFrom       latestTime;

startTime       0;

stopAt          endTime;

endTime         1000;

deltaT          1e-5;

writeControl    runTime;

writeInterval   0.1;

purgeWrite      0;

writeFormat     ascii;

writePrecision  6;

writeCompression off;

timeFormat      general;

timePrecision   10;

runTimeModifiable no;

adjustTimeStep  yes;

maxCo           0.2;

maxDeltaT       1;


functions
{
    #includeFunc fieldAverage(U.gas, U.liquid, alpha.gas, p, p_rgh, d.gas)
    #includeFunc    writeObjects(d.gas)
}


// ************************************************************************* //
